Program Version,EnergyPlus, Version 23.1.0-281e0c092b, YMD=2023.01.19 10:25
! <Version>, Version ID
 Version, 22.2
! <Timesteps per Hour>, #TimeSteps, Minutes per TimeStep {minutes}
 Timesteps per Hour,  6, 10
! <System Convergence Limits>, Minimum System TimeStep {minutes}, Max HVAC Iterations, Minimum Plant Iterations, Maximum Plant Iterations
 System Convergence Limits, 1, 20, 2, 8
! <Simulation Control>, Do Zone Sizing, Do System Sizing, Do Plant Sizing, Do Design Days, Do Weather Simulation, Do HVAC Sizing Simulation
 Simulation Control, Yes, Yes, Yes, No, Yes, Yes
! <Performance Precision Tradeoffs>, Use Coil Direct Simulation, Zone Radiant Exchange Algorithm, Override Mode, Number of Timestep In Hour, Force Euler Method, Minimum Number of Warmup Days, Force Suppress All Begin Environment Resets, Minimum System Timestep, MaxZoneTempDiff, MaxAllowedDelTemp
 Performance Precision Tradeoffs, No, ScriptF, Normal, 6, No, 1, No, 1.0, 0.300, 2.0000E-003
! <Output Reporting Tolerances>, Tolerance for Time Heating Setpoint Not Met, Tolerance for Zone Cooling Setpoint Not Met Time
 Output Reporting Tolerances, 0.200, 0.200, 
! <Site:GroundTemperature:BuildingSurface>,Jan{C},Feb{C},Mar{C},Apr{C},May{C},Jun{C},Jul{C},Aug{C},Sep{C},Oct{C},Nov{C},Dec{C}
 Site:GroundTemperature:BuildingSurface,  18.00,  18.00,  18.00,  18.00,  18.00,  18.00,  18.00,  18.00,  18.00,  18.00,  18.00,  18.00
! <Site:GroundTemperature:FCfactorMethod>,Jan{C},Feb{C},Mar{C},Apr{C},May{C},Jun{C},Jul{C},Aug{C},Sep{C},Oct{C},Nov{C},Dec{C}
 Site:GroundTemperature:FCfactorMethod,  24.20,  18.90,  15.70,  13.60,  15.50,  17.10,  21.20,  26.90,  27.60,  27.90,  27.40,  26.20
! <Site:GroundTemperature:Shallow>,Jan{C},Feb{C},Mar{C},Apr{C},May{C},Jun{C},Jul{C},Aug{C},Sep{C},Oct{C},Nov{C},Dec{C}
 Site:GroundTemperature:Shallow,  13.00,  13.00,  13.00,  13.00,  13.00,  13.00,  13.00,  13.00,  13.00,  13.00,  13.00,  13.00
! <Site:GroundTemperature:Deep>,Jan{C},Feb{C},Mar{C},Apr{C},May{C},Jun{C},Jul{C},Aug{C},Sep{C},Oct{C},Nov{C},Dec{C}
 Site:GroundTemperature:Deep,  16.00,  16.00,  16.00,  16.00,  16.00,  16.00,  16.00,  16.00,  16.00,  16.00,  16.00,  16.00
! <Site:GroundReflectance>,Jan{dimensionless},Feb{dimensionless},Mar{dimensionless},Apr{dimensionless},May{dimensionless},Jun{dimensionless},Jul{dimensionless},Aug{dimensionless},Sep{dimensionless},Oct{dimensionless},Nov{dimensionless},Dec{dimensionless}
 Site:GroundReflectance,  0.20,  0.20,  0.20,  0.20,  0.20,  0.20,  0.20,  0.20,  0.20,  0.20,  0.20,  0.20
! <Site:GroundReflectance:SnowModifier>, Normal, Daylighting {dimensionless}
 Site:GroundReflectance:SnowModifier,   1.000,   1.000
! <Site:GroundReflectance:Snow>,Jan{dimensionless},Feb{dimensionless},Mar{dimensionless},Apr{dimensionless},May{dimensionless},Jun{dimensionless},Jul{dimensionless},Aug{dimensionless},Sep{dimensionless},Oct{dimensionless},Nov{dimensionless},Dec{dimensionless}
 Site:GroundReflectance:Snow,  0.20,  0.20,  0.20,  0.20,  0.20,  0.20,  0.20,  0.20,  0.20,  0.20,  0.20,  0.20
! <Site:GroundReflectance:Snow:Daylighting>,Jan{dimensionless},Feb{dimensionless},Mar{dimensionless},Apr{dimensionless},May{dimensionless},Jun{dimensionless},Jul{dimensionless},Aug{dimensionless},Sep{dimensionless},Oct{dimensionless},Nov{dimensionless},Dec{dimensionless}
 Site:GroundReflectance:Snow:Daylighting,  0.20,  0.20,  0.20,  0.20,  0.20,  0.20,  0.20,  0.20,  0.20,  0.20,  0.20,  0.20
! <Environment:Weather Station>,Wind Sensor Height Above Ground {m},Wind Speed Profile Exponent {},Wind Speed Profile Boundary Layer Thickness {m},Air Temperature Sensor Height Above Ground {m},Wind Speed Modifier Coefficient-Internal,Temperature Modifier Coefficient-Internal
Environment:Weather Station,10.000,0.140,270.000,1.500,1.586,9.750E-003
! <Site:Location>, Location Name, Latitude {N+/S- Deg}, Longitude {E+/W- Deg},  Time Zone Number {GMT+/-}, Elevation {m},  Standard Pressure at Elevation {Pa}, Standard RhoAir at Elevation
Site:Location,Chicago Ohare Intl Ap IL USA TMY3 WMO#=725300,41.98,-87.92,-6.00,201.00,98934,1.1759
! <Site Water Mains Temperature Information>,Calculation Method{},Water Mains Temperature Schedule Name{},Annual Average Outdoor Air Temperature{C},Maximum Difference In Monthly Average Outdoor Air Temperatures{deltaC},Fixed Default Water Mains Temperature{C}
Site Water Mains Temperature Information,Correlation,NA,21.85,14.30,NA
! Schedule Details Report=Hourly =====================
! <ScheduleType>,Name,Limited? {Yes/No},Minimum,Maximum,Continuous? {Yes/No - Discrete}
! <DaySchedule>,Name,ScheduleType,Interpolated {Yes/No},Time (HH:MM) =>,01:00,02:00,03:00,04:00,05:00,06:00,07:00,08:00,09:00,10:00,11:00,12:00,13:00,14:00,15:00,16:00,17:00,18:00,19:00,20:00,21:00,22:00,23:00,24:00
! <WeekSchedule>,Name,Sunday,Monday,Tuesday,Wednesday,Thursday,Friday,Saturday,Holiday,SummerDesignDay,WinterDesignDay,CustomDay1,CustomDay2
! <Schedule>,Name,ScheduleType,{Until Date,WeekSchedule}** Repeated until Dec 31
ScheduleTypeLimits,BASEMENT ZN THERMOSTAT SCHEDULE TYPE LIMITS,Average,0,4,No
ScheduleTypeLimits,TEMPERATURE,No,N/A,N/A,N/A
ScheduleTypeLimits,CORE_BOTTOM ZN THERMOSTAT SCHEDULE TYPE LIMITS,Average,0,4,No
ScheduleTypeLimits,CORE_MID ZN THERMOSTAT SCHEDULE TYPE LIMITS,Average,0,4,No
ScheduleTypeLimits,CORE_TOP ZN THERMOSTAT SCHEDULE TYPE LIMITS,Average,0,4,No
ScheduleTypeLimits,DATACENTER_BASEMENT_ZN_6 ZN THERMOSTAT SCHEDULE TYPE LIMITS,Average,0,4,No
ScheduleTypeLimits,DATACENTER_BOT_ZN_6 ZN THERMOSTAT SCHEDULE TYPE LIMITS,Average,0,4,No
ScheduleTypeLimits,DATACENTER_MID_ZN_6 ZN THERMOSTAT SCHEDULE TYPE LIMITS,Average,0,4,No
ScheduleTypeLimits,DATACENTER_TOP_ZN_6 ZN THERMOSTAT SCHEDULE TYPE LIMITS,Average,0,4,No
ScheduleTypeLimits,PERIMETER_BOT_ZN_1 ZN THERMOSTAT SCHEDULE TYPE LIMITS,Average,0,4,No
ScheduleTypeLimits,PERIMETER_BOT_ZN_2 ZN THERMOSTAT SCHEDULE TYPE LIMITS,Average,0,4,No
ScheduleTypeLimits,PERIMETER_BOT_ZN_3 ZN THERMOSTAT SCHEDULE TYPE LIMITS,Average,0,4,No
ScheduleTypeLimits,PERIMETER_BOT_ZN_4 ZN THERMOSTAT SCHEDULE TYPE LIMITS,Average,0,4,No
ScheduleTypeLimits,PERIMETER_MID_ZN_1 ZN THERMOSTAT SCHEDULE TYPE LIMITS,Average,0,4,No
ScheduleTypeLimits,PERIMETER_MID_ZN_2 ZN THERMOSTAT SCHEDULE TYPE LIMITS,Average,0,4,No
ScheduleTypeLimits,PERIMETER_MID_ZN_3 ZN THERMOSTAT SCHEDULE TYPE LIMITS,Average,0,4,No
ScheduleTypeLimits,PERIMETER_MID_ZN_4 ZN THERMOSTAT SCHEDULE TYPE LIMITS,Average,0,4,No
ScheduleTypeLimits,PERIMETER_TOP_ZN_1 ZN THERMOSTAT SCHEDULE TYPE LIMITS,Average,0,4,No
ScheduleTypeLimits,PERIMETER_TOP_ZN_2 ZN THERMOSTAT SCHEDULE TYPE LIMITS,Average,0,4,No
ScheduleTypeLimits,PERIMETER_TOP_ZN_3 ZN THERMOSTAT SCHEDULE TYPE LIMITS,Average,0,4,No
ScheduleTypeLimits,PERIMETER_TOP_ZN_4 ZN THERMOSTAT SCHEDULE TYPE LIMITS,Average,0,4,No
ScheduleTypeLimits,ACTIVITYLEVEL,No,N/A,N/A,N/A
ScheduleTypeLimits,ALWAYS ON DISCRETE LIMITS,Average,0,1,No
ScheduleTypeLimits,ANY NUMBER,No,N/A,N/A,N/A
ScheduleTypeLimits,FRACTIONAL,Average,0.00,1.00,Yes
ScheduleTypeLimits,ONOFF,Average,0,1,No
ScheduleTypeLimits,TEMPERATURE SCHEDULE TYPE LIMITS,Average,0.00,100.00,Yes
ScheduleTypeLimits,VELOCITY,No,N/A,N/A,N/A
DaySchedule,OFFICELARGE HTGSETP_SCH_YES_OPTIMUM DEFAULT,TEMPERATURE,No,Values:,15.60,15.60,15.60,15.60,15.60,15.60,15.60,15.60,15.60,15.60,15.60,15.60,15.60,15.60,15.60,15.60,15.60,15.60,15.60,15.60,15.60,15.60,15.60,15.60
DaySchedule,OFFICELARGE HTGSETP_SCH_YES_OPTIMUM WKDY DAY,TEMPERATURE,No,Values:,15.60,15.60,15.60,15.60,17.80,20.00,21.00,21.00,21.00,21.00,21.00,21.00,21.00,21.00,21.00,21.00,21.00,21.00,21.00,21.00,21.00,21.00,15.60,15.60
DaySchedule,OFFICELARGE HTGSETP_SCH_YES_OPTIMUM SAT DAY,TEMPERATURE,No,Values:,15.60,15.60,15.60,15.60,17.80,20.00,21.00,21.00,21.00,21.00,21.00,21.00,21.00,21.00,21.00,21.00,21.00,15.60,15.60,15.60,15.60,15.60,15.60,15.60
DaySchedule,OFFICELARGE HTGSETP_SCH_YES_OPTIMUM SUMMER DESIGN DAY,TEMPERATURE,No,Values:,15.60,15.60,15.60,15.60,15.60,15.60,15.60,15.60,15.60,15.60,15.60,15.60,15.60,15.60,15.60,15.60,15.60,15.60,15.60,15.60,15.60,15.60,15.60,15.60
DaySchedule,OFFICELARGE HTGSETP_SCH_YES_OPTIMUM WINTER DESIGN DAY,TEMPERATURE,No,Values:,15.60,15.60,15.60,15.60,15.60,17.60,19.60,21.00,21.00,21.00,21.00,21.00,21.00,21.00,21.00,21.00,21.00,21.00,21.00,21.00,21.00,21.00,15.60,15.60
DaySchedule,OFFICELARGE CLGSETP_SCH_NO_SETBACK DEFAULT,TEMPERATURE,No,Values:,24.00,24.00,24.00,24.00,24.00,24.00,24.00,24.00,24.00,24.00,24.00,24.00,24.00,24.00,24.00,24.00,24.00,24.00,24.00,24.00,24.00,24.00,24.00,24.00
DaySchedule,OFFICELARGE CLGSETP_SCH_NO_SETBACK DEFAULT|WNTRDSN|SAT|WKDY DAY,TEMPERATURE,No,Values:,24.00,24.00,24.00,24.00,24.00,24.00,24.00,24.00,24.00,24.00,24.00,24.00,24.00,24.00,24.00,24.00,24.00,24.00,24.00,24.00,24.00,24.00,24.00,24.00
DaySchedule,OFFICELARGE CLGSETP_SCH_NO_SETBACK SUMMER DESIGN DAY,TEMPERATURE,No,Values:,26.70,26.70,26.70,26.70,26.70,25.70,25.00,24.00,24.00,24.00,24.00,24.00,24.00,24.00,24.00,24.00,24.00,24.00,24.00,24.00,24.00,24.00,26.70,26.70
DaySchedule,OFFICELARGE CLGSETP_SCH_NO_SETBACK WINTER DESIGN DAY,TEMPERATURE,No,Values:,24.00,24.00,24.00,24.00,24.00,24.00,24.00,24.00,24.00,24.00,24.00,24.00,24.00,24.00,24.00,24.00,24.00,24.00,24.00,24.00,24.00,24.00,24.00,24.00
DaySchedule,OFFICELARGE HTGSETP_DC_SCH DEFAULT,TEMPERATURE,No,Values:,18.00,18.00,18.00,18.00,18.00,18.00,18.00,18.00,18.00,18.00,18.00,18.00,18.00,18.00,18.00,18.00,18.00,18.00,18.00,18.00,18.00,18.00,18.00,18.00
DaySchedule,OFFICELARGE HTGSETP_DC_SCH SUMMER DESIGN DAY,TEMPERATURE,No,Values:,18.00,18.00,18.00,18.00,18.00,18.00,18.00,18.00,18.00,18.00,18.00,18.00,18.00,18.00,18.00,18.00,18.00,18.00,18.00,18.00,18.00,18.00,18.00,18.00
DaySchedule,OFFICELARGE HTGSETP_DC_SCH WINTER DESIGN DAY,TEMPERATURE,No,Values:,18.00,18.00,18.00,18.00,18.00,18.00,18.00,18.00,18.00,18.00,18.00,18.00,18.00,18.00,18.00,18.00,18.00,18.00,18.00,18.00,18.00,18.00,18.00,18.00
DaySchedule,OFFICELARGE CLGSETP_DC_SCH DEFAULT,TEMPERATURE,No,Values:,27.00,27.00,27.00,27.00,27.00,27.00,27.00,27.00,27.00,27.00,27.00,27.00,27.00,27.00,27.00,27.00,27.00,27.00,27.00,27.00,27.00,27.00,27.00,27.00
DaySchedule,OFFICELARGE CLGSETP_DC_SCH SUMMER DESIGN DAY,TEMPERATURE,No,Values:,27.00,27.00,27.00,27.00,27.00,27.00,27.00,27.00,27.00,27.00,27.00,27.00,27.00,27.00,27.00,27.00,27.00,27.00,27.00,27.00,27.00,27.00,27.00,27.00
DaySchedule,OFFICELARGE CLGSETP_DC_SCH WINTER DESIGN DAY,TEMPERATURE,No,Values:,27.00,27.00,27.00,27.00,27.00,27.00,27.00,27.00,27.00,27.00,27.00,27.00,27.00,27.00,27.00,27.00,27.00,27.00,27.00,27.00,27.00,27.00,27.00,27.00
DaySchedule,AIR VELOCITY SCHEDULE DEFAULT,VELOCITY,No,Values:,0.20,0.20,0.20,0.20,0.20,0.20,0.20,0.20,0.20,0.20,0.20,0.20,0.20,0.20,0.20,0.20,0.20,0.20,0.20,0.20,0.20,0.20,0.20,0.20
DaySchedule,CHILLED WATER LOOP TEMP - 44F DEFAULT,TEMPERATURE,No,Values:,6.67,6.67,6.67,6.67,6.67,6.67,6.67,6.67,6.67,6.67,6.67,6.67,6.67,6.67,6.67,6.67,6.67,6.67,6.67,6.67,6.67,6.67,6.67,6.67
DaySchedule,CLOTHING SCHEDULE DEFAULT WINTER CLOTHES,ANY NUMBER,No,Values:,1.00,1.00,1.00,1.00,1.00,1.00,1.00,1.00,1.00,1.00,1.00,1.00,1.00,1.00,1.00,1.00,1.00,1.00,1.00,1.00,1.00,1.00,1.00,1.00
DaySchedule,CLOTHING SCHEDULE SUMMER CLOTHES,ANY NUMBER,No,Values:,0.50,0.50,0.50,0.50,0.50,0.50,0.50,0.50,0.50,0.50,0.50,0.50,0.50,0.50,0.50,0.50,0.50,0.50,0.50,0.50,0.50,0.50,0.50,0.50
DaySchedule,DATACENTER_EQUIP_SCH SUMMER DESIGN DAY,FRACTIONAL,No,Values:,1.00,1.00,1.00,1.00,1.00,1.00,1.00,1.00,1.00,1.00,1.00,1.00,1.00,1.00,1.00,1.00,1.00,1.00,1.00,1.00,1.00,1.00,1.00,1.00
DaySchedule,DATACENTER_EQUIP_SCH WINTER DESIGN DAY 11,FRACTIONAL,No,Values:,0.25,0.25,0.25,0.25,0.25,0.25,0.25,0.25,0.25,0.25,0.25,0.25,0.25,0.25,0.25,0.25,0.25,0.25,0.25,0.25,0.25,0.25,0.25,0.25
DaySchedule,DATACENTER_EQUIP_SCH WKND|WKDY|HOL DAY,FRACTIONAL,No,Values:,0.25,0.25,0.25,0.25,0.25,0.25,0.25,0.25,0.25,0.25,0.25,0.25,0.25,0.25,0.25,0.25,0.25,0.25,0.25,0.25,0.25,0.25,0.25,0.25
DaySchedule,DATACENTER_EQUIP_SCH WKND|WKDY|HOL DAY 1,FRACTIONAL,No,Values:,0.50,0.50,0.50,0.50,0.50,0.50,0.50,0.50,0.50,0.50,0.50,0.50,0.50,0.50,0.50,0.50,0.50,0.50,0.50,0.50,0.50,0.50,0.50,0.50
DaySchedule,DATACENTER_EQUIP_SCH WKND|WKDY|HOL DAY 10,FRACTIONAL,No,Values:,0.75,0.75,0.75,0.75,0.75,0.75,0.75,0.75,0.75,0.75,0.75,0.75,0.75,0.75,0.75,0.75,0.75,0.75,0.75,0.75,0.75,0.75,0.75,0.75
DaySchedule,DATACENTER_EQUIP_SCH WKND|WKDY|HOL DAY 11,FRACTIONAL,No,Values:,1.00,1.00,1.00,1.00,1.00,1.00,1.00,1.00,1.00,1.00,1.00,1.00,1.00,1.00,1.00,1.00,1.00,1.00,1.00,1.00,1.00,1.00,1.00,1.00
DaySchedule,DATACENTER_EQUIP_SCH WKND|WKDY|HOL DAY 2,FRACTIONAL,No,Values:,0.75,0.75,0.75,0.75,0.75,0.75,0.75,0.75,0.75,0.75,0.75,0.75,0.75,0.75,0.75,0.75,0.75,0.75,0.75,0.75,0.75,0.75,0.75,0.75
DaySchedule,DATACENTER_EQUIP_SCH WKND|WKDY|HOL DAY 3,FRACTIONAL,No,Values:,1.00,1.00,1.00,1.00,1.00,1.00,1.00,1.00,1.00,1.00,1.00,1.00,1.00,1.00,1.00,1.00,1.00,1.00,1.00,1.00,1.00,1.00,1.00,1.00
DaySchedule,DATACENTER_EQUIP_SCH WKND|WKDY|HOL DAY 4,FRACTIONAL,No,Values:,0.25,0.25,0.25,0.25,0.25,0.25,0.25,0.25,0.25,0.25,0.25,0.25,0.25,0.25,0.25,0.25,0.25,0.25,0.25,0.25,0.25,0.25,0.25,0.25
DaySchedule,DATACENTER_EQUIP_SCH WKND|WKDY|HOL DAY 5,FRACTIONAL,No,Values:,0.50,0.50,0.50,0.50,0.50,0.50,0.50,0.50,0.50,0.50,0.50,0.50,0.50,0.50,0.50,0.50,0.50,0.50,0.50,0.50,0.50,0.50,0.50,0.50
DaySchedule,DATACENTER_EQUIP_SCH WKND|WKDY|HOL DAY 6,FRACTIONAL,No,Values:,0.75,0.75,0.75,0.75,0.75,0.75,0.75,0.75,0.75,0.75,0.75,0.75,0.75,0.75,0.75,0.75,0.75,0.75,0.75,0.75,0.75,0.75,0.75,0.75
DaySchedule,DATACENTER_EQUIP_SCH WKND|WKDY|HOL DAY 7,FRACTIONAL,No,Values:,1.00,1.00,1.00,1.00,1.00,1.00,1.00,1.00,1.00,1.00,1.00,1.00,1.00,1.00,1.00,1.00,1.00,1.00,1.00,1.00,1.00,1.00,1.00,1.00
DaySchedule,DATACENTER_EQUIP_SCH WKND|WKDY|HOL DAY 8,FRACTIONAL,No,Values:,0.25,0.25,0.25,0.25,0.25,0.25,0.25,0.25,0.25,0.25,0.25,0.25,0.25,0.25,0.25,0.25,0.25,0.25,0.25,0.25,0.25,0.25,0.25,0.25
DaySchedule,DATACENTER_EQUIP_SCH WKND|WKDY|HOL DAY 9,FRACTIONAL,No,Values:,0.50,0.50,0.50,0.50,0.50,0.50,0.50,0.50,0.50,0.50,0.50,0.50,0.50,0.50,0.50,0.50,0.50,0.50,0.50,0.50,0.50,0.50,0.50,0.50
DaySchedule,ECONOMIZER MAX OA FRACTION 70 PCT DEFAULT,,No,Values:,0.70,0.70,0.70,0.70,0.70,0.70,0.70,0.70,0.70,0.70,0.70,0.70,0.70,0.70,0.70,0.70,0.70,0.70,0.70,0.70,0.70,0.70,0.70,0.70
DaySchedule,FRACTION LATENT - 0.05 DEFAULT,FRACTIONAL,No,Values:,5.00E-002,5.00E-002,5.00E-002,5.00E-002,5.00E-002,5.00E-002,5.00E-002,5.00E-002,5.00E-002,5.00E-002,5.00E-002,5.00E-002,5.00E-002,5.00E-002,5.00E-002,5.00E-002,5.00E-002,5.00E-002,5.00E-002,5.00E-002,5.00E-002,5.00E-002,5.00E-002,5.00E-002
DaySchedule,FRACTION SENSIBLE - 0.2 DEFAULT,FRACTIONAL,No,Values:,0.20,0.20,0.20,0.20,0.20,0.20,0.20,0.20,0.20,0.20,0.20,0.20,0.20,0.20,0.20,0.20,0.20,0.20,0.20,0.20,0.20,0.20,0.20,0.20
DaySchedule,HEAT PUMP LOOP HIGH TEMP - 87F DEFAULT,TEMPERATURE,No,Values:,30.56,30.56,30.56,30.56,30.56,30.56,30.56,30.56,30.56,30.56,30.56,30.56,30.56,30.56,30.56,30.56,30.56,30.56,30.56,30.56,30.56,30.56,30.56,30.56
DaySchedule,HEAT PUMP LOOP LOW TEMP - 67F DEFAULT,TEMPERATURE,No,Values:,19.44,19.44,19.44,19.44,19.44,19.44,19.44,19.44,19.44,19.44,19.44,19.44,19.44,19.44,19.44,19.44,19.44,19.44,19.44,19.44,19.44,19.44,19.44,19.44
DaySchedule,HOT WATER LOOP TEMP - 180F DEFAULT,TEMPERATURE,No,Values:,82.22,82.22,82.22,82.22,82.22,82.22,82.22,82.22,82.22,82.22,82.22,82.22,82.22,82.22,82.22,82.22,82.22,82.22,82.22,82.22,82.22,82.22,82.22,82.22
DaySchedule,LARGE OFFICE BLDG ELEVATORS DEFAULT,FRACTIONAL,No,Values:,5.00E-002,5.00E-002,5.00E-002,5.00E-002,0.10,0.20,0.40,0.50,0.50,0.35,0.15,0.15,0.15,0.15,0.15,0.15,0.35,0.50,0.50,0.40,0.40,0.30,0.20,0.10
DaySchedule,LARGE OFFICE BLDG ELEVATORS SUMMER DESIGN DAY,FRACTIONAL,No,Values:,5.00E-002,5.00E-002,5.00E-002,5.00E-002,0.10,0.20,0.40,0.50,0.50,0.35,0.15,0.15,0.15,0.15,0.15,0.15,0.35,0.50,0.50,0.40,0.40,0.30,0.20,0.10
DaySchedule,LARGE OFFICE BLDG ELEVATORS WINTER DESIGN DAY,FRACTIONAL,No,Values:,5.00E-002,5.00E-002,5.00E-002,5.00E-002,0.10,0.20,0.40,0.50,0.50,0.35,0.15,0.15,0.15,0.15,0.15,0.15,0.35,0.50,0.50,0.40,0.40,0.30,0.20,0.10
DaySchedule,MIXED WATER AT FAUCET TEMP - 140F DEFAULT,TEMPERATURE,No,Values:,60.00,60.00,60.00,60.00,60.00,60.00,60.00,60.00,60.00,60.00,60.00,60.00,60.00,60.00,60.00,60.00,60.00,60.00,60.00,60.00,60.00,60.00,60.00,60.00
DaySchedule,OFFICELARGE ACTIVITY_SCH DEFAULT,ACTIVITYLEVEL,No,Values:,120.00,120.00,120.00,120.00,120.00,120.00,120.00,120.00,120.00,120.00,120.00,120.00,120.00,120.00,120.00,120.00,120.00,120.00,120.00,120.00,120.00,120.00,120.00,120.00
DaySchedule,OFFICELARGE ACTIVITY_SCH SUMMER DESIGN DAY,ACTIVITYLEVEL,No,Values:,120.00,120.00,120.00,120.00,120.00,120.00,120.00,120.00,120.00,120.00,120.00,120.00,120.00,120.00,120.00,120.00,120.00,120.00,120.00,120.00,120.00,120.00,120.00,120.00
DaySchedule,OFFICELARGE ACTIVITY_SCH WINTER DESIGN DAY,ACTIVITYLEVEL,No,Values:,120.00,120.00,120.00,120.00,120.00,120.00,120.00,120.00,120.00,120.00,120.00,120.00,120.00,120.00,120.00,120.00,120.00,120.00,120.00,120.00,120.00,120.00,120.00,120.00
DaySchedule,OFFICELARGE BLDG_EQUIP_SCH DEFAULT,FRACTIONAL,No,Values:,0.30,0.30,0.30,0.30,0.30,0.30,0.30,0.30,0.30,0.30,0.30,0.30,0.30,0.30,0.30,0.30,0.30,0.30,0.30,0.30,0.30,0.30,0.30,0.30
DaySchedule,OFFICELARGE BLDG_EQUIP_SCH SAT DAY,FRACTIONAL,No,Values:,0.30,0.30,0.30,0.30,0.30,0.30,0.40,0.40,0.50,0.50,0.50,0.50,0.35,0.35,0.35,0.35,0.35,0.30,0.30,0.30,0.30,0.30,0.30,0.30
DaySchedule,OFFICELARGE BLDG_EQUIP_SCH SUMMER DESIGN DAY,FRACTIONAL,No,Values:,1.00,1.00,1.00,1.00,1.00,1.00,1.00,1.00,1.00,1.00,1.00,1.00,1.00,1.00,1.00,1.00,1.00,1.00,1.00,1.00,1.00,1.00,1.00,1.00
DaySchedule,OFFICELARGE BLDG_EQUIP_SCH WINTER DESIGN DAY,FRACTIONAL,No,Values:,0.00,0.00,0.00,0.00,0.00,0.00,0.00,0.00,0.00,0.00,0.00,0.00,0.00,0.00,0.00,0.00,0.00,0.00,0.00,0.00,0.00,0.00,0.00,0.00
DaySchedule,OFFICELARGE BLDG_EQUIP_SCH WKDY DAY,FRACTIONAL,No,Values:,0.40,0.40,0.40,0.40,0.40,0.40,0.40,0.40,0.90,0.90,0.90,0.90,0.80,0.90,0.90,0.90,0.90,0.50,0.40,0.40,0.40,0.40,0.40,0.40
DaySchedule,OFFICELARGE BLDG_LIGHT_SCH DEFAULT,FRACTIONAL,No,Values:,5.00E-002,5.00E-002,5.00E-002,5.00E-002,5.00E-002,5.00E-002,5.00E-002,5.00E-002,5.00E-002,5.00E-002,5.00E-002,5.00E-002,5.00E-002,5.00E-002,5.00E-002,5.00E-002,5.00E-002,5.00E-002,5.00E-002,5.00E-002,5.00E-002,5.00E-002,5.00E-002,5.00E-002
DaySchedule,OFFICELARGE BLDG_LIGHT_SCH SAT DAY,FRACTIONAL,No,Values:,5.00E-002,5.00E-002,5.00E-002,5.00E-002,5.00E-002,5.00E-002,0.10,0.10,0.30,0.30,0.30,0.30,0.15,0.15,0.15,0.15,0.15,5.00E-002,5.00E-002,5.00E-002,5.00E-002,5.00E-002,5.00E-002,5.00E-002
DaySchedule,OFFICELARGE BLDG_LIGHT_SCH SUMMER DESIGN DAY,FRACTIONAL,No,Values:,1.00,1.00,1.00,1.00,1.00,1.00,1.00,1.00,1.00,1.00,1.00,1.00,1.00,1.00,1.00,1.00,1.00,1.00,1.00,1.00,1.00,1.00,1.00,1.00
DaySchedule,OFFICELARGE BLDG_LIGHT_SCH WINTER DESIGN DAY,FRACTIONAL,No,Values:,0.00,0.00,0.00,0.00,0.00,0.00,0.00,0.00,0.00,0.00,0.00,0.00,0.00,0.00,0.00,0.00,0.00,0.00,0.00,0.00,0.00,0.00,0.00,0.00
DaySchedule,OFFICELARGE BLDG_LIGHT_SCH WKDY DAY,FRACTIONAL,No,Values:,5.00E-002,5.00E-002,5.00E-002,5.00E-002,5.00E-002,5.00E-002,0.10,0.30,0.90,0.90,0.90,0.90,0.90,0.90,0.90,0.90,0.90,0.50,0.30,0.30,0.20,0.20,0.10,5.00E-002
DaySchedule,OFFICELARGE BLDG_OCC_SCH DEFAULT,FRACTIONAL,No,Values:,0.00,0.00,0.00,0.00,0.00,0.00,5.00E-002,5.00E-002,5.00E-002,5.00E-002,5.00E-002,5.00E-002,5.00E-002,5.00E-002,5.00E-002,5.00E-002,5.00E-002,5.00E-002,0.00,0.00,0.00,0.00,0.00,0.00
DaySchedule,OFFICELARGE BLDG_OCC_SCH SAT DAY,FRACTIONAL,No,Values:,0.00,0.00,0.00,0.00,0.00,0.00,0.10,0.10,0.30,0.30,0.30,0.30,0.10,0.10,0.10,0.10,0.10,5.00E-002,5.00E-002,0.00,0.00,0.00,0.00,0.00
DaySchedule,OFFICELARGE BLDG_OCC_SCH SUMMER DESIGN DAY,FRACTIONAL,No,Values:,0.00,0.00,0.00,0.00,0.00,0.00,1.00,1.00,1.00,1.00,1.00,1.00,1.00,1.00,1.00,1.00,1.00,1.00,1.00,1.00,1.00,1.00,5.00E-002,5.00E-002
DaySchedule,OFFICELARGE BLDG_OCC_SCH WINTER DESIGN DAY,FRACTIONAL,No,Values:,0.00,0.00,0.00,0.00,0.00,0.00,0.00,0.00,0.00,0.00,0.00,0.00,0.00,0.00,0.00,0.00,0.00,0.00,0.00,0.00,0.00,0.00,0.00,0.00
DaySchedule,OFFICELARGE BLDG_OCC_SCH WKDY DAY,FRACTIONAL,No,Values:,0.00,0.00,0.00,0.00,0.00,0.00,0.10,0.20,0.95,0.95,0.95,0.95,0.50,0.95,0.95,0.95,0.95,0.30,0.10,0.10,0.10,0.10,5.00E-002,5.00E-002
DaySchedule,OFFICELARGE BLDG_SWH_SCH DEFAULT,FRACTIONAL,No,Values:,0.00,0.00,0.00,0.00,0.00,0.00,7.00E-002,4.00E-002,4.00E-002,4.00E-002,4.00E-002,6.00E-002,6.00E-002,9.00E-002,6.00E-002,4.00E-002,4.00E-002,4.00E-002,4.00E-002,4.00E-002,4.00E-002,7.00E-002,4.00E-002,4.00E-002
DaySchedule,OFFICELARGE BLDG_SWH_SCH SMRDSN|WKDY DAY,FRACTIONAL,No,Values:,0.00,0.00,0.00,0.00,0.00,0.00,7.00E-002,0.19,0.35,0.38,0.39,0.47,0.57,0.54,0.34,0.33,0.44,0.26,0.21,0.15,0.17,8.00E-002,5.00E-002,5.00E-002
DaySchedule,OFFICELARGE BLDG_SWH_SCH SUMMER DESIGN DAY,FRACTIONAL,No,Values:,0.00,0.00,0.00,0.00,0.00,0.00,7.00E-002,0.19,0.35,0.38,0.39,0.47,0.57,0.54,0.34,0.33,0.44,0.26,0.21,0.15,0.17,8.00E-002,5.00E-002,5.00E-002
DaySchedule,OFFICELARGE BLDG_SWH_SCH WINTER DESIGN DAY,FRACTIONAL,No,Values:,0.00,0.00,0.00,0.00,0.00,0.00,7.00E-002,0.11,0.15,0.21,0.19,0.23,0.20,0.19,0.15,0.13,0.14,7.00E-002,7.00E-002,7.00E-002,7.00E-002,9.00E-002,5.00E-002,5.00E-002
DaySchedule,OFFICELARGE BLDG_SWH_SCH WNTRDSN|SAT DAY,FRACTIONAL,No,Values:,0.00,0.00,0.00,0.00,0.00,0.00,7.00E-002,0.11,0.15,0.21,0.19,0.23,0.20,0.19,0.15,0.13,0.14,7.00E-002,7.00E-002,7.00E-002,7.00E-002,9.00E-002,5.00E-002,5.00E-002
DaySchedule,OFFICELARGE ELEV_LIGHT_FAN_SCH_24_7 DEFAULT,FRACTIONAL,No,Values:,1.00,1.00,1.00,1.00,1.00,1.00,1.00,1.00,1.00,1.00,1.00,1.00,1.00,1.00,1.00,1.00,1.00,1.00,1.00,1.00,1.00,1.00,1.00,1.00
DaySchedule,OFFICELARGE ELEV_LIGHT_FAN_SCH_24_7 SUMMER DESIGN DAY,FRACTIONAL,No,Values:,1.00,1.00,1.00,1.00,1.00,1.00,1.00,1.00,1.00,1.00,1.00,1.00,1.00,1.00,1.00,1.00,1.00,1.00,1.00,1.00,1.00,1.00,1.00,1.00
DaySchedule,OFFICELARGE ELEV_LIGHT_FAN_SCH_24_7 WINTER DESIGN DAY,FRACTIONAL,No,Values:,1.00,1.00,1.00,1.00,1.00,1.00,1.00,1.00,1.00,1.00,1.00,1.00,1.00,1.00,1.00,1.00,1.00,1.00,1.00,1.00,1.00,1.00,1.00,1.00
DaySchedule,OFFICELARGE HVACOPERATIONSCHD DEFAULT,,No,Values:,0.00,0.00,0.00,0.00,0.00,0.00,0.00,0.00,0.00,0.00,0.00,0.00,0.00,0.00,0.00,0.00,0.00,0.00,0.00,0.00,0.00,0.00,0.00,0.00
DaySchedule,OFFICELARGE HVACOPERATIONSCHD SMRDSN|WKDY DAY,,No,Values:,0.00,0.00,0.00,0.00,0.00,0.00,1.00,1.00,1.00,1.00,1.00,1.00,1.00,1.00,1.00,1.00,1.00,1.00,1.00,1.00,1.00,1.00,0.00,0.00
DaySchedule,OFFICELARGE HVACOPERATIONSCHD SUMMER DESIGN DAY,,No,Values:,0.00,0.00,0.00,0.00,0.00,0.00,1.00,1.00,1.00,1.00,1.00,1.00,1.00,1.00,1.00,1.00,1.00,1.00,1.00,1.00,1.00,1.00,0.00,0.00
DaySchedule,OFFICELARGE HVACOPERATIONSCHD WINTER DESIGN DAY,,No,Values:,0.00,0.00,0.00,0.00,0.00,0.00,1.00,1.00,1.00,1.00,1.00,1.00,1.00,1.00,1.00,1.00,1.00,1.00,0.00,0.00,0.00,0.00,0.00,0.00
DaySchedule,OFFICELARGE HVACOPERATIONSCHD WNTRDSN|SAT DAY,,No,Values:,0.00,0.00,0.00,0.00,0.00,0.00,1.00,1.00,1.00,1.00,1.00,1.00,1.00,1.00,1.00,1.00,1.00,1.00,0.00,0.00,0.00,0.00,0.00,0.00
DaySchedule,OFFICELARGE INFIL_SCH_PNNL DEFAULT,FRACTIONAL,No,Values:,1.00,1.00,1.00,1.00,1.00,1.00,1.00,1.00,1.00,1.00,1.00,1.00,1.00,1.00,1.00,1.00,1.00,1.00,1.00,1.00,1.00,1.00,1.00,1.00
DaySchedule,OFFICELARGE INFIL_SCH_PNNL SMRDSN|WKDY DAY,FRACTIONAL,No,Values:,1.00,1.00,1.00,1.00,1.00,1.00,0.25,0.25,0.25,0.25,0.25,0.25,0.25,0.25,0.25,0.25,0.25,0.25,0.25,0.25,0.25,0.25,1.00,1.00
DaySchedule,OFFICELARGE INFIL_SCH_PNNL SUMMER DESIGN DAY,FRACTIONAL,No,Values:,1.00,1.00,1.00,1.00,1.00,1.00,0.25,0.25,0.25,0.25,0.25,0.25,0.25,0.25,0.25,0.25,0.25,0.25,0.25,0.25,0.25,0.25,1.00,1.00
DaySchedule,OFFICELARGE INFIL_SCH_PNNL WINTER DESIGN DAY,FRACTIONAL,No,Values:,1.00,1.00,1.00,1.00,1.00,1.00,0.25,0.25,0.25,0.25,0.25,0.25,0.25,0.25,0.25,0.25,0.25,0.25,1.00,1.00,1.00,1.00,1.00,1.00
DaySchedule,OFFICELARGE INFIL_SCH_PNNL WNTRDSN|SAT DAY,FRACTIONAL,No,Values:,1.00,1.00,1.00,1.00,1.00,1.00,0.25,0.25,0.25,0.25,0.25,0.25,0.25,0.25,0.25,0.25,0.25,0.25,1.00,1.00,1.00,1.00,1.00,1.00
DaySchedule,OFFICELARGE MINOA_MOTORIZEDDAMPER_SCHED DEFAULT,FRACTIONAL,No,Values:,0.00,0.00,0.00,0.00,0.00,0.00,0.00,0.00,0.00,0.00,0.00,0.00,0.00,0.00,0.00,0.00,0.00,0.00,0.00,0.00,0.00,0.00,0.00,0.00
DaySchedule,OFFICELARGE MINOA_MOTORIZEDDAMPER_SCHED SMRDSN|WKDY DAY,FRACTIONAL,No,Values:,0.00,0.00,0.00,0.00,0.00,0.00,0.00,1.00,1.00,1.00,1.00,1.00,1.00,1.00,1.00,1.00,1.00,1.00,1.00,1.00,1.00,1.00,0.00,0.00
DaySchedule,OFFICELARGE MINOA_MOTORIZEDDAMPER_SCHED SUMMER DESIGN DAY,FRACTIONAL,No,Values:,0.00,0.00,0.00,0.00,0.00,0.00,0.00,1.00,1.00,1.00,1.00,1.00,1.00,1.00,1.00,1.00,1.00,1.00,1.00,1.00,1.00,1.00,0.00,0.00
DaySchedule,OFFICELARGE MINOA_MOTORIZEDDAMPER_SCHED WINTER DESIGN DAY,FRACTIONAL,No,Values:,0.00,0.00,0.00,0.00,0.00,0.00,0.00,1.00,1.00,1.00,1.00,1.00,1.00,1.00,1.00,1.00,1.00,1.00,0.00,0.00,0.00,0.00,0.00,0.00
DaySchedule,OFFICELARGE MINOA_MOTORIZEDDAMPER_SCHED WNTRDSN|SAT DAY,FRACTIONAL,No,Values:,0.00,0.00,0.00,0.00,0.00,0.00,0.00,1.00,1.00,1.00,1.00,1.00,1.00,1.00,1.00,1.00,1.00,1.00,0.00,0.00,0.00,0.00,0.00,0.00
DaySchedule,SCHEDULE DAY 3,FRACTIONAL,No,Values:,0.00,0.00,0.00,0.00,0.00,0.00,0.00,0.00,0.00,0.00,0.00,0.00,0.00,0.00,0.00,0.00,0.00,0.00,0.00,0.00,0.00,0.00,0.00,0.00
DaySchedule,SCHEDULE DAY 48,TEMPERATURE,No,Values:,22.00,22.00,22.00,22.00,22.00,22.00,22.00,22.00,22.00,22.00,22.00,22.00,22.00,22.00,22.00,22.00,22.00,22.00,22.00,22.00,22.00,22.00,22.00,22.00
DaySchedule,SCHEDULE DAY 49,TEMPERATURE,No,Values:,60.00,60.00,60.00,60.00,60.00,60.00,60.00,60.00,60.00,60.00,60.00,60.00,60.00,60.00,60.00,60.00,60.00,60.00,60.00,60.00,60.00,60.00,60.00,60.00
DaySchedule,SERVICE WATER LOOP TEMP - 140F DEFAULT,TEMPERATURE SCHEDULE TYPE LIMITS,No,Values:,60.00,60.00,60.00,60.00,60.00,60.00,60.00,60.00,60.00,60.00,60.00,60.00,60.00,60.00,60.00,60.00,60.00,60.00,60.00,60.00,60.00,60.00,60.00,60.00
DaySchedule,SUPPLY AIR TEMP - 55.0F DEFAULT,TEMPERATURE,No,Values:,12.78,12.78,12.78,12.78,12.78,12.78,12.78,12.78,12.78,12.78,12.78,12.78,12.78,12.78,12.78,12.78,12.78,12.78,12.78,12.78,12.78,12.78,12.78,12.78
DaySchedule,WORK EFFICIENCY SCHEDULE DEFAULT,FRACTIONAL,No,Values:,0.00,0.00,0.00,0.00,0.00,0.00,0.00,0.00,0.00,0.00,0.00,0.00,0.00,0.00,0.00,0.00,0.00,0.00,0.00,0.00,0.00,0.00,0.00,0.00
DaySchedule,BASEMENT ZN THERMOSTAT SCHEDULE_dy_1,BASEMENT ZN THERMOSTAT SCHEDULE TYPE LIMITS,No,Values:,4.00,4.00,4.00,4.00,4.00,4.00,4.00,4.00,4.00,4.00,4.00,4.00,4.00,4.00,4.00,4.00,4.00,4.00,4.00,4.00,4.00,4.00,4.00,4.00
DaySchedule,CORE_BOTTOM ZN THERMOSTAT SCHEDULE_dy_1,CORE_BOTTOM ZN THERMOSTAT SCHEDULE TYPE LIMITS,No,Values:,4.00,4.00,4.00,4.00,4.00,4.00,4.00,4.00,4.00,4.00,4.00,4.00,4.00,4.00,4.00,4.00,4.00,4.00,4.00,4.00,4.00,4.00,4.00,4.00
DaySchedule,CORE_MID ZN THERMOSTAT SCHEDULE_dy_1,CORE_MID ZN THERMOSTAT SCHEDULE TYPE LIMITS,No,Values:,4.00,4.00,4.00,4.00,4.00,4.00,4.00,4.00,4.00,4.00,4.00,4.00,4.00,4.00,4.00,4.00,4.00,4.00,4.00,4.00,4.00,4.00,4.00,4.00
DaySchedule,CORE_TOP ZN THERMOSTAT SCHEDULE_dy_1,CORE_TOP ZN THERMOSTAT SCHEDULE TYPE LIMITS,No,Values:,4.00,4.00,4.00,4.00,4.00,4.00,4.00,4.00,4.00,4.00,4.00,4.00,4.00,4.00,4.00,4.00,4.00,4.00,4.00,4.00,4.00,4.00,4.00,4.00
DaySchedule,DATACENTER_BASEMENT_ZN_6 ZN THERMOSTAT SCHEDULE_dy_1,DATACENTER_BASEMENT_ZN_6 ZN THERMOSTAT SCHEDULE TYPE LIMITS,No,Values:,4.00,4.00,4.00,4.00,4.00,4.00,4.00,4.00,4.00,4.00,4.00,4.00,4.00,4.00,4.00,4.00,4.00,4.00,4.00,4.00,4.00,4.00,4.00,4.00
DaySchedule,DATACENTER_BOT_ZN_6 ZN THERMOSTAT SCHEDULE_dy_1,DATACENTER_BOT_ZN_6 ZN THERMOSTAT SCHEDULE TYPE LIMITS,No,Values:,4.00,4.00,4.00,4.00,4.00,4.00,4.00,4.00,4.00,4.00,4.00,4.00,4.00,4.00,4.00,4.00,4.00,4.00,4.00,4.00,4.00,4.00,4.00,4.00
DaySchedule,DATACENTER_MID_ZN_6 ZN THERMOSTAT SCHEDULE_dy_1,DATACENTER_MID_ZN_6 ZN THERMOSTAT SCHEDULE TYPE LIMITS,No,Values:,4.00,4.00,4.00,4.00,4.00,4.00,4.00,4.00,4.00,4.00,4.00,4.00,4.00,4.00,4.00,4.00,4.00,4.00,4.00,4.00,4.00,4.00,4.00,4.00
DaySchedule,DATACENTER_TOP_ZN_6 ZN THERMOSTAT SCHEDULE_dy_1,DATACENTER_TOP_ZN_6 ZN THERMOSTAT SCHEDULE TYPE LIMITS,No,Values:,4.00,4.00,4.00,4.00,4.00,4.00,4.00,4.00,4.00,4.00,4.00,4.00,4.00,4.00,4.00,4.00,4.00,4.00,4.00,4.00,4.00,4.00,4.00,4.00
DaySchedule,PERIMETER_BOT_ZN_1 ZN THERMOSTAT SCHEDULE_dy_1,PERIMETER_BOT_ZN_1 ZN THERMOSTAT SCHEDULE TYPE LIMITS,No,Values:,4.00,4.00,4.00,4.00,4.00,4.00,4.00,4.00,4.00,4.00,4.00,4.00,4.00,4.00,4.00,4.00,4.00,4.00,4.00,4.00,4.00,4.00,4.00,4.00
DaySchedule,PERIMETER_BOT_ZN_2 ZN THERMOSTAT SCHEDULE_dy_1,PERIMETER_BOT_ZN_2 ZN THERMOSTAT SCHEDULE TYPE LIMITS,No,Values:,4.00,4.00,4.00,4.00,4.00,4.00,4.00,4.00,4.00,4.00,4.00,4.00,4.00,4.00,4.00,4.00,4.00,4.00,4.00,4.00,4.00,4.00,4.00,4.00
DaySchedule,PERIMETER_BOT_ZN_3 ZN THERMOSTAT SCHEDULE_dy_1,PERIMETER_BOT_ZN_3 ZN THERMOSTAT SCHEDULE TYPE LIMITS,No,Values:,4.00,4.00,4.00,4.00,4.00,4.00,4.00,4.00,4.00,4.00,4.00,4.00,4.00,4.00,4.00,4.00,4.00,4.00,4.00,4.00,4.00,4.00,4.00,4.00
DaySchedule,PERIMETER_BOT_ZN_4 ZN THERMOSTAT SCHEDULE_dy_1,PERIMETER_BOT_ZN_4 ZN THERMOSTAT SCHEDULE TYPE LIMITS,No,Values:,4.00,4.00,4.00,4.00,4.00,4.00,4.00,4.00,4.00,4.00,4.00,4.00,4.00,4.00,4.00,4.00,4.00,4.00,4.00,4.00,4.00,4.00,4.00,4.00
DaySchedule,PERIMETER_MID_ZN_1 ZN THERMOSTAT SCHEDULE_dy_1,PERIMETER_MID_ZN_1 ZN THERMOSTAT SCHEDULE TYPE LIMITS,No,Values:,4.00,4.00,4.00,4.00,4.00,4.00,4.00,4.00,4.00,4.00,4.00,4.00,4.00,4.00,4.00,4.00,4.00,4.00,4.00,4.00,4.00,4.00,4.00,4.00
DaySchedule,PERIMETER_MID_ZN_2 ZN THERMOSTAT SCHEDULE_dy_1,PERIMETER_MID_ZN_2 ZN THERMOSTAT SCHEDULE TYPE LIMITS,No,Values:,4.00,4.00,4.00,4.00,4.00,4.00,4.00,4.00,4.00,4.00,4.00,4.00,4.00,4.00,4.00,4.00,4.00,4.00,4.00,4.00,4.00,4.00,4.00,4.00
DaySchedule,PERIMETER_MID_ZN_3 ZN THERMOSTAT SCHEDULE_dy_1,PERIMETER_MID_ZN_3 ZN THERMOSTAT SCHEDULE TYPE LIMITS,No,Values:,4.00,4.00,4.00,4.00,4.00,4.00,4.00,4.00,4.00,4.00,4.00,4.00,4.00,4.00,4.00,4.00,4.00,4.00,4.00,4.00,4.00,4.00,4.00,4.00
DaySchedule,PERIMETER_MID_ZN_4 ZN THERMOSTAT SCHEDULE_dy_1,PERIMETER_MID_ZN_4 ZN THERMOSTAT SCHEDULE TYPE LIMITS,No,Values:,4.00,4.00,4.00,4.00,4.00,4.00,4.00,4.00,4.00,4.00,4.00,4.00,4.00,4.00,4.00,4.00,4.00,4.00,4.00,4.00,4.00,4.00,4.00,4.00
DaySchedule,PERIMETER_TOP_ZN_1 ZN THERMOSTAT SCHEDULE_dy_1,PERIMETER_TOP_ZN_1 ZN THERMOSTAT SCHEDULE TYPE LIMITS,No,Values:,4.00,4.00,4.00,4.00,4.00,4.00,4.00,4.00,4.00,4.00,4.00,4.00,4.00,4.00,4.00,4.00,4.00,4.00,4.00,4.00,4.00,4.00,4.00,4.00
DaySchedule,PERIMETER_TOP_ZN_2 ZN THERMOSTAT SCHEDULE_dy_1,PERIMETER_TOP_ZN_2 ZN THERMOSTAT SCHEDULE TYPE LIMITS,No,Values:,4.00,4.00,4.00,4.00,4.00,4.00,4.00,4.00,4.00,4.00,4.00,4.00,4.00,4.00,4.00,4.00,4.00,4.00,4.00,4.00,4.00,4.00,4.00,4.00
DaySchedule,PERIMETER_TOP_ZN_3 ZN THERMOSTAT SCHEDULE_dy_1,PERIMETER_TOP_ZN_3 ZN THERMOSTAT SCHEDULE TYPE LIMITS,No,Values:,4.00,4.00,4.00,4.00,4.00,4.00,4.00,4.00,4.00,4.00,4.00,4.00,4.00,4.00,4.00,4.00,4.00,4.00,4.00,4.00,4.00,4.00,4.00,4.00
DaySchedule,PERIMETER_TOP_ZN_4 ZN THERMOSTAT SCHEDULE_dy_1,PERIMETER_TOP_ZN_4 ZN THERMOSTAT SCHEDULE TYPE LIMITS,No,Values:,4.00,4.00,4.00,4.00,4.00,4.00,4.00,4.00,4.00,4.00,4.00,4.00,4.00,4.00,4.00,4.00,4.00,4.00,4.00,4.00,4.00,4.00,4.00,4.00
DaySchedule,ALWAYS ON_dy_1,ONOFF,No,Values:,1.00,1.00,1.00,1.00,1.00,1.00,1.00,1.00,1.00,1.00,1.00,1.00,1.00,1.00,1.00,1.00,1.00,1.00,1.00,1.00,1.00,1.00,1.00,1.00
DaySchedule,ALWAYS ON DISCRETE_dy_,ALWAYS ON DISCRETE LIMITS,No,Values:,1.00,1.00,1.00,1.00,1.00,1.00,1.00,1.00,1.00,1.00,1.00,1.00,1.00,1.00,1.00,1.00,1.00,1.00,1.00,1.00,1.00,1.00,1.00,1.00
DaySchedule,ALWAYS OFF DISCRETE_dy_,,No,Values:,0.00,0.00,0.00,0.00,0.00,0.00,0.00,0.00,0.00,0.00,0.00,0.00,0.00,0.00,0.00,0.00,0.00,0.00,0.00,0.00,0.00,0.00,0.00,0.00
DaySchedule,ALWAYS ON CONTINUOUS_dy_,,No,Values:,1.00,1.00,1.00,1.00,1.00,1.00,1.00,1.00,1.00,1.00,1.00,1.00,1.00,1.00,1.00,1.00,1.00,1.00,1.00,1.00,1.00,1.00,1.00,1.00
Schedule:Week:Daily,OFFICELARGE HTGSETP_SCH_YES_OPTIMUM WEEK RULE - JAN1-DEC31,OFFICELARGE HTGSETP_SCH_YES_OPTIMUM DEFAULT,OFFICELARGE HTGSETP_SCH_YES_OPTIMUM WKDY DAY,OFFICELARGE HTGSETP_SCH_YES_OPTIMUM WKDY DAY,OFFICELARGE HTGSETP_SCH_YES_OPTIMUM WKDY DAY,OFFICELARGE HTGSETP_SCH_YES_OPTIMUM WKDY DAY,OFFICELARGE HTGSETP_SCH_YES_OPTIMUM WKDY DAY,OFFICELARGE HTGSETP_SCH_YES_OPTIMUM SAT DAY,OFFICELARGE HTGSETP_SCH_YES_OPTIMUM DEFAULT,OFFICELARGE HTGSETP_SCH_YES_OPTIMUM SUMMER DESIGN DAY,OFFICELARGE HTGSETP_SCH_YES_OPTIMUM WINTER DESIGN DAY,OFFICELARGE HTGSETP_SCH_YES_OPTIMUM DEFAULT,OFFICELARGE HTGSETP_SCH_YES_OPTIMUM DEFAULT
Schedule:Week:Daily,OFFICELARGE CLGSETP_SCH_NO_SETBACK WEEK RULE - JAN1-DEC31,OFFICELARGE CLGSETP_SCH_NO_SETBACK DEFAULT,OFFICELARGE CLGSETP_SCH_NO_SETBACK DEFAULT|WNTRDSN|SAT|WKDY DAY,OFFICELARGE CLGSETP_SCH_NO_SETBACK DEFAULT|WNTRDSN|SAT|WKDY DAY,OFFICELARGE CLGSETP_SCH_NO_SETBACK DEFAULT|WNTRDSN|SAT|WKDY DAY,OFFICELARGE CLGSETP_SCH_NO_SETBACK DEFAULT|WNTRDSN|SAT|WKDY DAY,OFFICELARGE CLGSETP_SCH_NO_SETBACK DEFAULT|WNTRDSN|SAT|WKDY DAY,OFFICELARGE CLGSETP_SCH_NO_SETBACK DEFAULT|WNTRDSN|SAT|WKDY DAY,OFFICELARGE CLGSETP_SCH_NO_SETBACK DEFAULT,OFFICELARGE CLGSETP_SCH_NO_SETBACK SUMMER DESIGN DAY,OFFICELARGE CLGSETP_SCH_NO_SETBACK WINTER DESIGN DAY,OFFICELARGE CLGSETP_SCH_NO_SETBACK DEFAULT,OFFICELARGE CLGSETP_SCH_NO_SETBACK DEFAULT
Schedule:Week:Daily,OFFICELARGE HTGSETP_DC_SCH WEEK RULE - JAN1-DEC31,OFFICELARGE HTGSETP_DC_SCH DEFAULT,OFFICELARGE HTGSETP_DC_SCH DEFAULT,OFFICELARGE HTGSETP_DC_SCH DEFAULT,OFFICELARGE HTGSETP_DC_SCH DEFAULT,OFFICELARGE HTGSETP_DC_SCH DEFAULT,OFFICELARGE HTGSETP_DC_SCH DEFAULT,OFFICELARGE HTGSETP_DC_SCH DEFAULT,OFFICELARGE HTGSETP_DC_SCH DEFAULT,OFFICELARGE HTGSETP_DC_SCH SUMMER DESIGN DAY,OFFICELARGE HTGSETP_DC_SCH WINTER DESIGN DAY,OFFICELARGE HTGSETP_DC_SCH DEFAULT,OFFICELARGE HTGSETP_DC_SCH DEFAULT
Schedule:Week:Daily,OFFICELARGE CLGSETP_DC_SCH WEEK RULE - JAN1-DEC31,OFFICELARGE CLGSETP_DC_SCH DEFAULT,OFFICELARGE CLGSETP_DC_SCH DEFAULT,OFFICELARGE CLGSETP_DC_SCH DEFAULT,OFFICELARGE CLGSETP_DC_SCH DEFAULT,OFFICELARGE CLGSETP_DC_SCH DEFAULT,OFFICELARGE CLGSETP_DC_SCH DEFAULT,OFFICELARGE CLGSETP_DC_SCH DEFAULT,OFFICELARGE CLGSETP_DC_SCH DEFAULT,OFFICELARGE CLGSETP_DC_SCH SUMMER DESIGN DAY,OFFICELARGE CLGSETP_DC_SCH WINTER DESIGN DAY,OFFICELARGE CLGSETP_DC_SCH DEFAULT,OFFICELARGE CLGSETP_DC_SCH DEFAULT
Schedule:Week:Daily,AIR VELOCITY SCHEDULE WEEK RULE - JAN1-DEC31,AIR VELOCITY SCHEDULE DEFAULT,AIR VELOCITY SCHEDULE DEFAULT,AIR VELOCITY SCHEDULE DEFAULT,AIR VELOCITY SCHEDULE DEFAULT,AIR VELOCITY SCHEDULE DEFAULT,AIR VELOCITY SCHEDULE DEFAULT,AIR VELOCITY SCHEDULE DEFAULT,AIR VELOCITY SCHEDULE DEFAULT,AIR VELOCITY SCHEDULE DEFAULT,AIR VELOCITY SCHEDULE DEFAULT,AIR VELOCITY SCHEDULE DEFAULT,AIR VELOCITY SCHEDULE DEFAULT
Schedule:Week:Daily,CHILLED WATER LOOP TEMP - 44F WEEK RULE - JAN1-DEC31,CHILLED WATER LOOP TEMP - 44F DEFAULT,CHILLED WATER LOOP TEMP - 44F DEFAULT,CHILLED WATER LOOP TEMP - 44F DEFAULT,CHILLED WATER LOOP TEMP - 44F DEFAULT,CHILLED WATER LOOP TEMP - 44F DEFAULT,CHILLED WATER LOOP TEMP - 44F DEFAULT,CHILLED WATER LOOP TEMP - 44F DEFAULT,CHILLED WATER LOOP TEMP - 44F DEFAULT,CHILLED WATER LOOP TEMP - 44F DEFAULT,CHILLED WATER LOOP TEMP - 44F DEFAULT,CHILLED WATER LOOP TEMP - 44F DEFAULT,CHILLED WATER LOOP TEMP - 44F DEFAULT
Schedule:Week:Daily,CLOTHING SCHEDULE WEEK RULE - JAN1-DEC31,CLOTHING SCHEDULE DEFAULT WINTER CLOTHES,CLOTHING SCHEDULE DEFAULT WINTER CLOTHES,CLOTHING SCHEDULE DEFAULT WINTER CLOTHES,CLOTHING SCHEDULE DEFAULT WINTER CLOTHES,CLOTHING SCHEDULE DEFAULT WINTER CLOTHES,CLOTHING SCHEDULE DEFAULT WINTER CLOTHES,CLOTHING SCHEDULE DEFAULT WINTER CLOTHES,CLOTHING SCHEDULE DEFAULT WINTER CLOTHES,CLOTHING SCHEDULE DEFAULT WINTER CLOTHES,CLOTHING SCHEDULE DEFAULT WINTER CLOTHES,CLOTHING SCHEDULE DEFAULT WINTER CLOTHES,CLOTHING SCHEDULE DEFAULT WINTER CLOTHES
Schedule:Week:Daily,DATACENTER_EQUIP_SCH WEEK RULE - JAN1-JAN28,DATACENTER_EQUIP_SCH WKND|WKDY|HOL DAY,DATACENTER_EQUIP_SCH WKND|WKDY|HOL DAY,DATACENTER_EQUIP_SCH WKND|WKDY|HOL DAY,DATACENTER_EQUIP_SCH WKND|WKDY|HOL DAY,DATACENTER_EQUIP_SCH WKND|WKDY|HOL DAY,DATACENTER_EQUIP_SCH WKND|WKDY|HOL DAY,DATACENTER_EQUIP_SCH WKND|WKDY|HOL DAY,SCHEDULE DAY 3,DATACENTER_EQUIP_SCH SUMMER DESIGN DAY,DATACENTER_EQUIP_SCH WINTER DESIGN DAY 11,SCHEDULE DAY 3,SCHEDULE DAY 3
Schedule:Week:Daily,DATACENTER_EQUIP_SCH WEEK RULE - JAN29-FEB4,DATACENTER_EQUIP_SCH WKND|WKDY|HOL DAY,DATACENTER_EQUIP_SCH WKND|WKDY|HOL DAY,DATACENTER_EQUIP_SCH WKND|WKDY|HOL DAY,DATACENTER_EQUIP_SCH WKND|WKDY|HOL DAY 1,DATACENTER_EQUIP_SCH WKND|WKDY|HOL DAY 1,DATACENTER_EQUIP_SCH WKND|WKDY|HOL DAY 1,DATACENTER_EQUIP_SCH WKND|WKDY|HOL DAY 1,SCHEDULE DAY 3,DATACENTER_EQUIP_SCH SUMMER DESIGN DAY,DATACENTER_EQUIP_SCH WINTER DESIGN DAY 11,SCHEDULE DAY 3,SCHEDULE DAY 3
Schedule:Week:Daily,DATACENTER_EQUIP_SCH WEEK RULE - FEB5-FEB25,DATACENTER_EQUIP_SCH WKND|WKDY|HOL DAY 1,DATACENTER_EQUIP_SCH WKND|WKDY|HOL DAY 1,DATACENTER_EQUIP_SCH WKND|WKDY|HOL DAY 1,DATACENTER_EQUIP_SCH WKND|WKDY|HOL DAY 1,DATACENTER_EQUIP_SCH WKND|WKDY|HOL DAY 1,DATACENTER_EQUIP_SCH WKND|WKDY|HOL DAY 1,DATACENTER_EQUIP_SCH WKND|WKDY|HOL DAY 1,SCHEDULE DAY 3,DATACENTER_EQUIP_SCH SUMMER DESIGN DAY,DATACENTER_EQUIP_SCH WINTER DESIGN DAY 11,SCHEDULE DAY 3,SCHEDULE DAY 3
Schedule:Week:Daily,DATACENTER_EQUIP_SCH WEEK RULE - FEB26-MAR4,DATACENTER_EQUIP_SCH WKND|WKDY|HOL DAY 1,DATACENTER_EQUIP_SCH WKND|WKDY|HOL DAY 1,DATACENTER_EQUIP_SCH WKND|WKDY|HOL DAY 1,DATACENTER_EQUIP_SCH WKND|WKDY|HOL DAY 2,DATACENTER_EQUIP_SCH WKND|WKDY|HOL DAY 2,DATACENTER_EQUIP_SCH WKND|WKDY|HOL DAY 2,DATACENTER_EQUIP_SCH WKND|WKDY|HOL DAY 2,SCHEDULE DAY 3,DATACENTER_EQUIP_SCH SUMMER DESIGN DAY,DATACENTER_EQUIP_SCH WINTER DESIGN DAY 11,SCHEDULE DAY 3,SCHEDULE DAY 3
Schedule:Week:Daily,DATACENTER_EQUIP_SCH WEEK RULE - MAR5-MAR25,DATACENTER_EQUIP_SCH WKND|WKDY|HOL DAY 2,DATACENTER_EQUIP_SCH WKND|WKDY|HOL DAY 2,DATACENTER_EQUIP_SCH WKND|WKDY|HOL DAY 2,DATACENTER_EQUIP_SCH WKND|WKDY|HOL DAY 2,DATACENTER_EQUIP_SCH WKND|WKDY|HOL DAY 2,DATACENTER_EQUIP_SCH WKND|WKDY|HOL DAY 2,DATACENTER_EQUIP_SCH WKND|WKDY|HOL DAY 2,SCHEDULE DAY 3,DATACENTER_EQUIP_SCH SUMMER DESIGN DAY,DATACENTER_EQUIP_SCH WINTER DESIGN DAY 11,SCHEDULE DAY 3,SCHEDULE DAY 3
Schedule:Week:Daily,DATACENTER_EQUIP_SCH WEEK RULE - MAR26-APR1,DATACENTER_EQUIP_SCH WKND|WKDY|HOL DAY 2,DATACENTER_EQUIP_SCH WKND|WKDY|HOL DAY 2,DATACENTER_EQUIP_SCH WKND|WKDY|HOL DAY 2,DATACENTER_EQUIP_SCH WKND|WKDY|HOL DAY 2,DATACENTER_EQUIP_SCH WKND|WKDY|HOL DAY 2,DATACENTER_EQUIP_SCH WKND|WKDY|HOL DAY 2,DATACENTER_EQUIP_SCH WKND|WKDY|HOL DAY 3,SCHEDULE DAY 3,DATACENTER_EQUIP_SCH SUMMER DESIGN DAY,DATACENTER_EQUIP_SCH WINTER DESIGN DAY 11,SCHEDULE DAY 3,SCHEDULE DAY 3
Schedule:Week:Daily,DATACENTER_EQUIP_SCH WEEK RULE - APR2-APR29,DATACENTER_EQUIP_SCH WKND|WKDY|HOL DAY 3,DATACENTER_EQUIP_SCH WKND|WKDY|HOL DAY 3,DATACENTER_EQUIP_SCH WKND|WKDY|HOL DAY 3,DATACENTER_EQUIP_SCH WKND|WKDY|HOL DAY 3,DATACENTER_EQUIP_SCH WKND|WKDY|HOL DAY 3,DATACENTER_EQUIP_SCH WKND|WKDY|HOL DAY 3,DATACENTER_EQUIP_SCH WKND|WKDY|HOL DAY 3,SCHEDULE DAY 3,DATACENTER_EQUIP_SCH SUMMER DESIGN DAY,DATACENTER_EQUIP_SCH WINTER DESIGN DAY 11,SCHEDULE DAY 3,SCHEDULE DAY 3
Schedule:Week:Daily,DATACENTER_EQUIP_SCH WEEK RULE - APR30-MAY6,DATACENTER_EQUIP_SCH WKND|WKDY|HOL DAY 3,DATACENTER_EQUIP_SCH WKND|WKDY|HOL DAY 4,DATACENTER_EQUIP_SCH WKND|WKDY|HOL DAY 4,DATACENTER_EQUIP_SCH WKND|WKDY|HOL DAY 4,DATACENTER_EQUIP_SCH WKND|WKDY|HOL DAY 4,DATACENTER_EQUIP_SCH WKND|WKDY|HOL DAY 4,DATACENTER_EQUIP_SCH WKND|WKDY|HOL DAY 4,SCHEDULE DAY 3,DATACENTER_EQUIP_SCH SUMMER DESIGN DAY,DATACENTER_EQUIP_SCH WINTER DESIGN DAY 11,SCHEDULE DAY 3,SCHEDULE DAY 3
Schedule:Week:Daily,DATACENTER_EQUIP_SCH WEEK RULE - MAY7-MAY27,DATACENTER_EQUIP_SCH WKND|WKDY|HOL DAY 4,DATACENTER_EQUIP_SCH WKND|WKDY|HOL DAY 4,DATACENTER_EQUIP_SCH WKND|WKDY|HOL DAY 4,DATACENTER_EQUIP_SCH WKND|WKDY|HOL DAY 4,DATACENTER_EQUIP_SCH WKND|WKDY|HOL DAY 4,DATACENTER_EQUIP_SCH WKND|WKDY|HOL DAY 4,DATACENTER_EQUIP_SCH WKND|WKDY|HOL DAY 4,SCHEDULE DAY 3,DATACENTER_EQUIP_SCH SUMMER DESIGN DAY,DATACENTER_EQUIP_SCH WINTER DESIGN DAY 11,SCHEDULE DAY 3,SCHEDULE DAY 3
Schedule:Week:Daily,DATACENTER_EQUIP_SCH WEEK RULE - MAY28-JUN3,DATACENTER_EQUIP_SCH WKND|WKDY|HOL DAY 4,DATACENTER_EQUIP_SCH WKND|WKDY|HOL DAY 4,DATACENTER_EQUIP_SCH WKND|WKDY|HOL DAY 4,DATACENTER_EQUIP_SCH WKND|WKDY|HOL DAY 4,DATACENTER_EQUIP_SCH WKND|WKDY|HOL DAY 5,DATACENTER_EQUIP_SCH WKND|WKDY|HOL DAY 5,DATACENTER_EQUIP_SCH WKND|WKDY|HOL DAY 5,SCHEDULE DAY 3,DATACENTER_EQUIP_SCH SUMMER DESIGN DAY,DATACENTER_EQUIP_SCH WINTER DESIGN DAY 11,SCHEDULE DAY 3,SCHEDULE DAY 3
Schedule:Week:Daily,DATACENTER_EQUIP_SCH WEEK RULE - JUN4-JUN24,DATACENTER_EQUIP_SCH WKND|WKDY|HOL DAY 5,DATACENTER_EQUIP_SCH WKND|WKDY|HOL DAY 5,DATACENTER_EQUIP_SCH WKND|WKDY|HOL DAY 5,DATACENTER_EQUIP_SCH WKND|WKDY|HOL DAY 5,DATACENTER_EQUIP_SCH WKND|WKDY|HOL DAY 5,DATACENTER_EQUIP_SCH WKND|WKDY|HOL DAY 5,DATACENTER_EQUIP_SCH WKND|WKDY|HOL DAY 5,SCHEDULE DAY 3,DATACENTER_EQUIP_SCH SUMMER DESIGN DAY,DATACENTER_EQUIP_SCH WINTER DESIGN DAY 11,SCHEDULE DAY 3,SCHEDULE DAY 3
Schedule:Week:Daily,DATACENTER_EQUIP_SCH WEEK RULE - JUN25-JUL1,DATACENTER_EQUIP_SCH WKND|WKDY|HOL DAY 5,DATACENTER_EQUIP_SCH WKND|WKDY|HOL DAY 5,DATACENTER_EQUIP_SCH WKND|WKDY|HOL DAY 5,DATACENTER_EQUIP_SCH WKND|WKDY|HOL DAY 5,DATACENTER_EQUIP_SCH WKND|WKDY|HOL DAY 5,DATACENTER_EQUIP_SCH WKND|WKDY|HOL DAY 5,DATACENTER_EQUIP_SCH WKND|WKDY|HOL DAY 6,SCHEDULE DAY 3,DATACENTER_EQUIP_SCH SUMMER DESIGN DAY,DATACENTER_EQUIP_SCH WINTER DESIGN DAY 11,SCHEDULE DAY 3,SCHEDULE DAY 3
Schedule:Week:Daily,DATACENTER_EQUIP_SCH WEEK RULE - JUL2-JUL29,DATACENTER_EQUIP_SCH WKND|WKDY|HOL DAY 6,DATACENTER_EQUIP_SCH WKND|WKDY|HOL DAY 6,DATACENTER_EQUIP_SCH WKND|WKDY|HOL DAY 6,DATACENTER_EQUIP_SCH WKND|WKDY|HOL DAY 6,DATACENTER_EQUIP_SCH WKND|WKDY|HOL DAY 6,DATACENTER_EQUIP_SCH WKND|WKDY|HOL DAY 6,DATACENTER_EQUIP_SCH WKND|WKDY|HOL DAY 6,SCHEDULE DAY 3,DATACENTER_EQUIP_SCH SUMMER DESIGN DAY,DATACENTER_EQUIP_SCH WINTER DESIGN DAY 11,SCHEDULE DAY 3,SCHEDULE DAY 3
Schedule:Week:Daily,DATACENTER_EQUIP_SCH WEEK RULE - JUL30-AUG5,DATACENTER_EQUIP_SCH WKND|WKDY|HOL DAY 6,DATACENTER_EQUIP_SCH WKND|WKDY|HOL DAY 6,DATACENTER_EQUIP_SCH WKND|WKDY|HOL DAY 7,DATACENTER_EQUIP_SCH WKND|WKDY|HOL DAY 7,DATACENTER_EQUIP_SCH WKND|WKDY|HOL DAY 7,DATACENTER_EQUIP_SCH WKND|WKDY|HOL DAY 7,DATACENTER_EQUIP_SCH WKND|WKDY|HOL DAY 7,SCHEDULE DAY 3,DATACENTER_EQUIP_SCH SUMMER DESIGN DAY,DATACENTER_EQUIP_SCH WINTER DESIGN DAY 11,SCHEDULE DAY 3,SCHEDULE DAY 3
Schedule:Week:Daily,DATACENTER_EQUIP_SCH WEEK RULE - AUG6-AUG26,DATACENTER_EQUIP_SCH WKND|WKDY|HOL DAY 7,DATACENTER_EQUIP_SCH WKND|WKDY|HOL DAY 7,DATACENTER_EQUIP_SCH WKND|WKDY|HOL DAY 7,DATACENTER_EQUIP_SCH WKND|WKDY|HOL DAY 7,DATACENTER_EQUIP_SCH WKND|WKDY|HOL DAY 7,DATACENTER_EQUIP_SCH WKND|WKDY|HOL DAY 7,DATACENTER_EQUIP_SCH WKND|WKDY|HOL DAY 7,SCHEDULE DAY 3,DATACENTER_EQUIP_SCH SUMMER DESIGN DAY,DATACENTER_EQUIP_SCH WINTER DESIGN DAY 11,SCHEDULE DAY 3,SCHEDULE DAY 3
Schedule:Week:Daily,DATACENTER_EQUIP_SCH WEEK RULE - AUG27-SEP2,DATACENTER_EQUIP_SCH WKND|WKDY|HOL DAY 7,DATACENTER_EQUIP_SCH WKND|WKDY|HOL DAY 7,DATACENTER_EQUIP_SCH WKND|WKDY|HOL DAY 7,DATACENTER_EQUIP_SCH WKND|WKDY|HOL DAY 7,DATACENTER_EQUIP_SCH WKND|WKDY|HOL DAY 7,DATACENTER_EQUIP_SCH WKND|WKDY|HOL DAY 8,DATACENTER_EQUIP_SCH WKND|WKDY|HOL DAY 8,SCHEDULE DAY 3,DATACENTER_EQUIP_SCH SUMMER DESIGN DAY,DATACENTER_EQUIP_SCH WINTER DESIGN DAY 11,SCHEDULE DAY 3,SCHEDULE DAY 3
Schedule:Week:Daily,DATACENTER_EQUIP_SCH WEEK RULE - SEP3-SEP30,DATACENTER_EQUIP_SCH WKND|WKDY|HOL DAY 8,DATACENTER_EQUIP_SCH WKND|WKDY|HOL DAY 8,DATACENTER_EQUIP_SCH WKND|WKDY|HOL DAY 8,DATACENTER_EQUIP_SCH WKND|WKDY|HOL DAY 8,DATACENTER_EQUIP_SCH WKND|WKDY|HOL DAY 8,DATACENTER_EQUIP_SCH WKND|WKDY|HOL DAY 8,DATACENTER_EQUIP_SCH WKND|WKDY|HOL DAY 8,SCHEDULE DAY 3,DATACENTER_EQUIP_SCH SUMMER DESIGN DAY,DATACENTER_EQUIP_SCH WINTER DESIGN DAY 11,SCHEDULE DAY 3,SCHEDULE DAY 3
Schedule:Week:Daily,DATACENTER_EQUIP_SCH WEEK RULE - OCT1-OCT28,DATACENTER_EQUIP_SCH WKND|WKDY|HOL DAY 9,DATACENTER_EQUIP_SCH WKND|WKDY|HOL DAY 9,DATACENTER_EQUIP_SCH WKND|WKDY|HOL DAY 9,DATACENTER_EQUIP_SCH WKND|WKDY|HOL DAY 9,DATACENTER_EQUIP_SCH WKND|WKDY|HOL DAY 9,DATACENTER_EQUIP_SCH WKND|WKDY|HOL DAY 9,DATACENTER_EQUIP_SCH WKND|WKDY|HOL DAY 9,SCHEDULE DAY 3,DATACENTER_EQUIP_SCH SUMMER DESIGN DAY,DATACENTER_EQUIP_SCH WINTER DESIGN DAY 11,SCHEDULE DAY 3,SCHEDULE DAY 3
Schedule:Week:Daily,DATACENTER_EQUIP_SCH WEEK RULE - OCT29-NOV4,DATACENTER_EQUIP_SCH WKND|WKDY|HOL DAY 9,DATACENTER_EQUIP_SCH WKND|WKDY|HOL DAY 9,DATACENTER_EQUIP_SCH WKND|WKDY|HOL DAY 9,DATACENTER_EQUIP_SCH WKND|WKDY|HOL DAY 10,DATACENTER_EQUIP_SCH WKND|WKDY|HOL DAY 10,DATACENTER_EQUIP_SCH WKND|WKDY|HOL DAY 10,DATACENTER_EQUIP_SCH WKND|WKDY|HOL DAY 10,SCHEDULE DAY 3,DATACENTER_EQUIP_SCH SUMMER DESIGN DAY,DATACENTER_EQUIP_SCH WINTER DESIGN DAY 11,SCHEDULE DAY 3,SCHEDULE DAY 3
Schedule:Week:Daily,DATACENTER_EQUIP_SCH WEEK RULE - NOV5-NOV25,DATACENTER_EQUIP_SCH WKND|WKDY|HOL DAY 10,DATACENTER_EQUIP_SCH WKND|WKDY|HOL DAY 10,DATACENTER_EQUIP_SCH WKND|WKDY|HOL DAY 10,DATACENTER_EQUIP_SCH WKND|WKDY|HOL DAY 10,DATACENTER_EQUIP_SCH WKND|WKDY|HOL DAY 10,DATACENTER_EQUIP_SCH WKND|WKDY|HOL DAY 10,DATACENTER_EQUIP_SCH WKND|WKDY|HOL DAY 10,SCHEDULE DAY 3,DATACENTER_EQUIP_SCH SUMMER DESIGN DAY,DATACENTER_EQUIP_SCH WINTER DESIGN DAY 11,SCHEDULE DAY 3,SCHEDULE DAY 3
Schedule:Week:Daily,DATACENTER_EQUIP_SCH WEEK RULE - NOV26-DEC2,DATACENTER_EQUIP_SCH WKND|WKDY|HOL DAY 10,DATACENTER_EQUIP_SCH WKND|WKDY|HOL DAY 10,DATACENTER_EQUIP_SCH WKND|WKDY|HOL DAY 10,DATACENTER_EQUIP_SCH WKND|WKDY|HOL DAY 10,DATACENTER_EQUIP_SCH WKND|WKDY|HOL DAY 10,DATACENTER_EQUIP_SCH WKND|WKDY|HOL DAY 11,DATACENTER_EQUIP_SCH WKND|WKDY|HOL DAY 11,SCHEDULE DAY 3,DATACENTER_EQUIP_SCH SUMMER DESIGN DAY,DATACENTER_EQUIP_SCH WINTER DESIGN DAY 11,SCHEDULE DAY 3,SCHEDULE DAY 3
Schedule:Week:Daily,DATACENTER_EQUIP_SCH WEEK RULE - DEC3-DEC31,DATACENTER_EQUIP_SCH WKND|WKDY|HOL DAY 11,DATACENTER_EQUIP_SCH WKND|WKDY|HOL DAY 11,DATACENTER_EQUIP_SCH WKND|WKDY|HOL DAY 11,DATACENTER_EQUIP_SCH WKND|WKDY|HOL DAY 11,DATACENTER_EQUIP_SCH WKND|WKDY|HOL DAY 11,DATACENTER_EQUIP_SCH WKND|WKDY|HOL DAY 11,DATACENTER_EQUIP_SCH WKND|WKDY|HOL DAY 11,SCHEDULE DAY 3,DATACENTER_EQUIP_SCH SUMMER DESIGN DAY,DATACENTER_EQUIP_SCH WINTER DESIGN DAY 11,SCHEDULE DAY 3,SCHEDULE DAY 3
Schedule:Week:Daily,FRACTION LATENT - 0.05 WEEK RULE - JAN1-DEC31,FRACTION LATENT - 0.05 DEFAULT,FRACTION LATENT - 0.05 DEFAULT,FRACTION LATENT - 0.05 DEFAULT,FRACTION LATENT - 0.05 DEFAULT,FRACTION LATENT - 0.05 DEFAULT,FRACTION LATENT - 0.05 DEFAULT,FRACTION LATENT - 0.05 DEFAULT,FRACTION LATENT - 0.05 DEFAULT,FRACTION LATENT - 0.05 DEFAULT,FRACTION LATENT - 0.05 DEFAULT,FRACTION LATENT - 0.05 DEFAULT,FRACTION LATENT - 0.05 DEFAULT
Schedule:Week:Daily,FRACTION SENSIBLE - 0.2 WEEK RULE - JAN1-DEC31,FRACTION SENSIBLE - 0.2 DEFAULT,FRACTION SENSIBLE - 0.2 DEFAULT,FRACTION SENSIBLE - 0.2 DEFAULT,FRACTION SENSIBLE - 0.2 DEFAULT,FRACTION SENSIBLE - 0.2 DEFAULT,FRACTION SENSIBLE - 0.2 DEFAULT,FRACTION SENSIBLE - 0.2 DEFAULT,FRACTION SENSIBLE - 0.2 DEFAULT,FRACTION SENSIBLE - 0.2 DEFAULT,FRACTION SENSIBLE - 0.2 DEFAULT,FRACTION SENSIBLE - 0.2 DEFAULT,FRACTION SENSIBLE - 0.2 DEFAULT
Schedule:Week:Daily,HEAT PUMP LOOP HIGH TEMP - 87F WEEK RULE - JAN1-DEC31,HEAT PUMP LOOP HIGH TEMP - 87F DEFAULT,HEAT PUMP LOOP HIGH TEMP - 87F DEFAULT,HEAT PUMP LOOP HIGH TEMP - 87F DEFAULT,HEAT PUMP LOOP HIGH TEMP - 87F DEFAULT,HEAT PUMP LOOP HIGH TEMP - 87F DEFAULT,HEAT PUMP LOOP HIGH TEMP - 87F DEFAULT,HEAT PUMP LOOP HIGH TEMP - 87F DEFAULT,HEAT PUMP LOOP HIGH TEMP - 87F DEFAULT,HEAT PUMP LOOP HIGH TEMP - 87F DEFAULT,HEAT PUMP LOOP HIGH TEMP - 87F DEFAULT,HEAT PUMP LOOP HIGH TEMP - 87F DEFAULT,HEAT PUMP LOOP HIGH TEMP - 87F DEFAULT
Schedule:Week:Daily,HEAT PUMP LOOP LOW TEMP - 67F WEEK RULE - JAN1-DEC31,HEAT PUMP LOOP LOW TEMP - 67F DEFAULT,HEAT PUMP LOOP LOW TEMP - 67F DEFAULT,HEAT PUMP LOOP LOW TEMP - 67F DEFAULT,HEAT PUMP LOOP LOW TEMP - 67F DEFAULT,HEAT PUMP LOOP LOW TEMP - 67F DEFAULT,HEAT PUMP LOOP LOW TEMP - 67F DEFAULT,HEAT PUMP LOOP LOW TEMP - 67F DEFAULT,HEAT PUMP LOOP LOW TEMP - 67F DEFAULT,HEAT PUMP LOOP LOW TEMP - 67F DEFAULT,HEAT PUMP LOOP LOW TEMP - 67F DEFAULT,HEAT PUMP LOOP LOW TEMP - 67F DEFAULT,HEAT PUMP LOOP LOW TEMP - 67F DEFAULT
Schedule:Week:Daily,HOT WATER LOOP TEMP - 180F WEEK RULE - JAN1-DEC31,HOT WATER LOOP TEMP - 180F DEFAULT,HOT WATER LOOP TEMP - 180F DEFAULT,HOT WATER LOOP TEMP - 180F DEFAULT,HOT WATER LOOP TEMP - 180F DEFAULT,HOT WATER LOOP TEMP - 180F DEFAULT,HOT WATER LOOP TEMP - 180F DEFAULT,HOT WATER LOOP TEMP - 180F DEFAULT,HOT WATER LOOP TEMP - 180F DEFAULT,HOT WATER LOOP TEMP - 180F DEFAULT,HOT WATER LOOP TEMP - 180F DEFAULT,HOT WATER LOOP TEMP - 180F DEFAULT,HOT WATER LOOP TEMP - 180F DEFAULT
Schedule:Week:Daily,LARGE OFFICE BLDG ELEVATORS WEEK RULE - JAN1-DEC31,LARGE OFFICE BLDG ELEVATORS DEFAULT,LARGE OFFICE BLDG ELEVATORS DEFAULT,LARGE OFFICE BLDG ELEVATORS DEFAULT,LARGE OFFICE BLDG ELEVATORS DEFAULT,LARGE OFFICE BLDG ELEVATORS DEFAULT,LARGE OFFICE BLDG ELEVATORS DEFAULT,LARGE OFFICE BLDG ELEVATORS DEFAULT,LARGE OFFICE BLDG ELEVATORS DEFAULT,LARGE OFFICE BLDG ELEVATORS SUMMER DESIGN DAY,LARGE OFFICE BLDG ELEVATORS WINTER DESIGN DAY,LARGE OFFICE BLDG ELEVATORS DEFAULT,LARGE OFFICE BLDG ELEVATORS DEFAULT
Schedule:Week:Daily,MIXED WATER AT FAUCET TEMP - 140F WEEK RULE - JAN1-DEC31,MIXED WATER AT FAUCET TEMP - 140F DEFAULT,MIXED WATER AT FAUCET TEMP - 140F DEFAULT,MIXED WATER AT FAUCET TEMP - 140F DEFAULT,MIXED WATER AT FAUCET TEMP - 140F DEFAULT,MIXED WATER AT FAUCET TEMP - 140F DEFAULT,MIXED WATER AT FAUCET TEMP - 140F DEFAULT,MIXED WATER AT FAUCET TEMP - 140F DEFAULT,MIXED WATER AT FAUCET TEMP - 140F DEFAULT,MIXED WATER AT FAUCET TEMP - 140F DEFAULT,MIXED WATER AT FAUCET TEMP - 140F DEFAULT,MIXED WATER AT FAUCET TEMP - 140F DEFAULT,MIXED WATER AT FAUCET TEMP - 140F DEFAULT
Schedule:Week:Daily,OFFICELARGE ACTIVITY_SCH WEEK RULE - JAN1-DEC31,OFFICELARGE ACTIVITY_SCH DEFAULT,OFFICELARGE ACTIVITY_SCH DEFAULT,OFFICELARGE ACTIVITY_SCH DEFAULT,OFFICELARGE ACTIVITY_SCH DEFAULT,OFFICELARGE ACTIVITY_SCH DEFAULT,OFFICELARGE ACTIVITY_SCH DEFAULT,OFFICELARGE ACTIVITY_SCH DEFAULT,OFFICELARGE ACTIVITY_SCH DEFAULT,OFFICELARGE ACTIVITY_SCH SUMMER DESIGN DAY,OFFICELARGE ACTIVITY_SCH WINTER DESIGN DAY,OFFICELARGE ACTIVITY_SCH DEFAULT,OFFICELARGE ACTIVITY_SCH DEFAULT
Schedule:Week:Daily,OFFICELARGE BLDG_EQUIP_SCH WEEK RULE - JAN1-DEC31,OFFICELARGE BLDG_EQUIP_SCH DEFAULT,OFFICELARGE BLDG_EQUIP_SCH WKDY DAY,OFFICELARGE BLDG_EQUIP_SCH WKDY DAY,OFFICELARGE BLDG_EQUIP_SCH WKDY DAY,OFFICELARGE BLDG_EQUIP_SCH WKDY DAY,OFFICELARGE BLDG_EQUIP_SCH WKDY DAY,OFFICELARGE BLDG_EQUIP_SCH SAT DAY,OFFICELARGE BLDG_EQUIP_SCH DEFAULT,OFFICELARGE BLDG_EQUIP_SCH SUMMER DESIGN DAY,OFFICELARGE BLDG_EQUIP_SCH WINTER DESIGN DAY,OFFICELARGE BLDG_EQUIP_SCH DEFAULT,OFFICELARGE BLDG_EQUIP_SCH DEFAULT
Schedule:Week:Daily,OFFICELARGE BLDG_LIGHT_SCH WEEK RULE - JAN1-DEC31,OFFICELARGE BLDG_LIGHT_SCH DEFAULT,OFFICELARGE BLDG_LIGHT_SCH WKDY DAY,OFFICELARGE BLDG_LIGHT_SCH WKDY DAY,OFFICELARGE BLDG_LIGHT_SCH WKDY DAY,OFFICELARGE BLDG_LIGHT_SCH WKDY DAY,OFFICELARGE BLDG_LIGHT_SCH WKDY DAY,OFFICELARGE BLDG_LIGHT_SCH SAT DAY,OFFICELARGE BLDG_LIGHT_SCH DEFAULT,OFFICELARGE BLDG_LIGHT_SCH SUMMER DESIGN DAY,OFFICELARGE BLDG_LIGHT_SCH WINTER DESIGN DAY,OFFICELARGE BLDG_LIGHT_SCH DEFAULT,OFFICELARGE BLDG_LIGHT_SCH DEFAULT
Schedule:Week:Daily,OFFICELARGE BLDG_OCC_SCH WEEK RULE - JAN1-DEC31,OFFICELARGE BLDG_OCC_SCH DEFAULT,OFFICELARGE BLDG_OCC_SCH WKDY DAY,OFFICELARGE BLDG_OCC_SCH WKDY DAY,OFFICELARGE BLDG_OCC_SCH WKDY DAY,OFFICELARGE BLDG_OCC_SCH WKDY DAY,OFFICELARGE BLDG_OCC_SCH WKDY DAY,OFFICELARGE BLDG_OCC_SCH SAT DAY,OFFICELARGE BLDG_OCC_SCH DEFAULT,OFFICELARGE BLDG_OCC_SCH SUMMER DESIGN DAY,OFFICELARGE BLDG_OCC_SCH WINTER DESIGN DAY,OFFICELARGE BLDG_OCC_SCH DEFAULT,OFFICELARGE BLDG_OCC_SCH DEFAULT
Schedule:Week:Daily,OFFICELARGE BLDG_SWH_SCH WEEK RULE - JAN1-DEC31,OFFICELARGE BLDG_SWH_SCH DEFAULT,OFFICELARGE BLDG_SWH_SCH SMRDSN|WKDY DAY,OFFICELARGE BLDG_SWH_SCH SMRDSN|WKDY DAY,OFFICELARGE BLDG_SWH_SCH SMRDSN|WKDY DAY,OFFICELARGE BLDG_SWH_SCH SMRDSN|WKDY DAY,OFFICELARGE BLDG_SWH_SCH SMRDSN|WKDY DAY,OFFICELARGE BLDG_SWH_SCH WNTRDSN|SAT DAY,OFFICELARGE BLDG_SWH_SCH DEFAULT,OFFICELARGE BLDG_SWH_SCH SUMMER DESIGN DAY,OFFICELARGE BLDG_SWH_SCH WINTER DESIGN DAY,OFFICELARGE BLDG_SWH_SCH DEFAULT,OFFICELARGE BLDG_SWH_SCH DEFAULT
Schedule:Week:Daily,OFFICELARGE ELEV_LIGHT_FAN_SCH_24_7 WEEK RULE - JAN1-DEC31,OFFICELARGE ELEV_LIGHT_FAN_SCH_24_7 DEFAULT,OFFICELARGE ELEV_LIGHT_FAN_SCH_24_7 DEFAULT,OFFICELARGE ELEV_LIGHT_FAN_SCH_24_7 DEFAULT,OFFICELARGE ELEV_LIGHT_FAN_SCH_24_7 DEFAULT,OFFICELARGE ELEV_LIGHT_FAN_SCH_24_7 DEFAULT,OFFICELARGE ELEV_LIGHT_FAN_SCH_24_7 DEFAULT,OFFICELARGE ELEV_LIGHT_FAN_SCH_24_7 DEFAULT,OFFICELARGE ELEV_LIGHT_FAN_SCH_24_7 DEFAULT,OFFICELARGE ELEV_LIGHT_FAN_SCH_24_7 SUMMER DESIGN DAY,OFFICELARGE ELEV_LIGHT_FAN_SCH_24_7 WINTER DESIGN DAY,OFFICELARGE ELEV_LIGHT_FAN_SCH_24_7 DEFAULT,OFFICELARGE ELEV_LIGHT_FAN_SCH_24_7 DEFAULT
Schedule:Week:Daily,OFFICELARGE HVACOPERATIONSCHD WEEK RULE - JAN1-DEC31,OFFICELARGE HVACOPERATIONSCHD DEFAULT,OFFICELARGE HVACOPERATIONSCHD SMRDSN|WKDY DAY,OFFICELARGE HVACOPERATIONSCHD SMRDSN|WKDY DAY,OFFICELARGE HVACOPERATIONSCHD SMRDSN|WKDY DAY,OFFICELARGE HVACOPERATIONSCHD SMRDSN|WKDY DAY,OFFICELARGE HVACOPERATIONSCHD SMRDSN|WKDY DAY,OFFICELARGE HVACOPERATIONSCHD WNTRDSN|SAT DAY,OFFICELARGE HVACOPERATIONSCHD DEFAULT,OFFICELARGE HVACOPERATIONSCHD SUMMER DESIGN DAY,OFFICELARGE HVACOPERATIONSCHD WINTER DESIGN DAY,OFFICELARGE HVACOPERATIONSCHD DEFAULT,OFFICELARGE HVACOPERATIONSCHD DEFAULT
Schedule:Week:Daily,OFFICELARGE INFIL_SCH_PNNL WEEK RULE - JAN1-DEC31,OFFICELARGE INFIL_SCH_PNNL DEFAULT,OFFICELARGE INFIL_SCH_PNNL SMRDSN|WKDY DAY,OFFICELARGE INFIL_SCH_PNNL SMRDSN|WKDY DAY,OFFICELARGE INFIL_SCH_PNNL SMRDSN|WKDY DAY,OFFICELARGE INFIL_SCH_PNNL SMRDSN|WKDY DAY,OFFICELARGE INFIL_SCH_PNNL SMRDSN|WKDY DAY,OFFICELARGE INFIL_SCH_PNNL WNTRDSN|SAT DAY,OFFICELARGE INFIL_SCH_PNNL DEFAULT,OFFICELARGE INFIL_SCH_PNNL SUMMER DESIGN DAY,OFFICELARGE INFIL_SCH_PNNL WINTER DESIGN DAY,OFFICELARGE INFIL_SCH_PNNL DEFAULT,OFFICELARGE INFIL_SCH_PNNL DEFAULT
Schedule:Week:Daily,OFFICELARGE MINOA_MOTORIZEDDAMPER_SCHED WEEK RULE - JAN1-DEC31,OFFICELARGE MINOA_MOTORIZEDDAMPER_SCHED DEFAULT,OFFICELARGE MINOA_MOTORIZEDDAMPER_SCHED SMRDSN|WKDY DAY,OFFICELARGE MINOA_MOTORIZEDDAMPER_SCHED SMRDSN|WKDY DAY,OFFICELARGE MINOA_MOTORIZEDDAMPER_SCHED SMRDSN|WKDY DAY,OFFICELARGE MINOA_MOTORIZEDDAMPER_SCHED SMRDSN|WKDY DAY,OFFICELARGE MINOA_MOTORIZEDDAMPER_SCHED SMRDSN|WKDY DAY,OFFICELARGE MINOA_MOTORIZEDDAMPER_SCHED WNTRDSN|SAT DAY,OFFICELARGE MINOA_MOTORIZEDDAMPER_SCHED DEFAULT,OFFICELARGE MINOA_MOTORIZEDDAMPER_SCHED SUMMER DESIGN DAY,OFFICELARGE MINOA_MOTORIZEDDAMPER_SCHED WINTER DESIGN DAY,OFFICELARGE MINOA_MOTORIZEDDAMPER_SCHED DEFAULT,OFFICELARGE MINOA_MOTORIZEDDAMPER_SCHED DEFAULT
Schedule:Week:Daily,SERVICE WATER LOOP TEMP - 140F WEEK RULE - JAN1-DEC31,SERVICE WATER LOOP TEMP - 140F DEFAULT,SERVICE WATER LOOP TEMP - 140F DEFAULT,SERVICE WATER LOOP TEMP - 140F DEFAULT,SERVICE WATER LOOP TEMP - 140F DEFAULT,SERVICE WATER LOOP TEMP - 140F DEFAULT,SERVICE WATER LOOP TEMP - 140F DEFAULT,SERVICE WATER LOOP TEMP - 140F DEFAULT,SERVICE WATER LOOP TEMP - 140F DEFAULT,SERVICE WATER LOOP TEMP - 140F DEFAULT,SERVICE WATER LOOP TEMP - 140F DEFAULT,SERVICE WATER LOOP TEMP - 140F DEFAULT,SERVICE WATER LOOP TEMP - 140F DEFAULT
Schedule:Week:Daily,SUPPLY AIR TEMP - 55.0F WEEK RULE - JAN1-DEC31,SUPPLY AIR TEMP - 55.0F DEFAULT,SUPPLY AIR TEMP - 55.0F DEFAULT,SUPPLY AIR TEMP - 55.0F DEFAULT,SUPPLY AIR TEMP - 55.0F DEFAULT,SUPPLY AIR TEMP - 55.0F DEFAULT,SUPPLY AIR TEMP - 55.0F DEFAULT,SUPPLY AIR TEMP - 55.0F DEFAULT,SUPPLY AIR TEMP - 55.0F DEFAULT,SUPPLY AIR TEMP - 55.0F DEFAULT,SUPPLY AIR TEMP - 55.0F DEFAULT,SUPPLY AIR TEMP - 55.0F DEFAULT,SUPPLY AIR TEMP - 55.0F DEFAULT
Schedule:Week:Daily,WORK EFFICIENCY SCHEDULE WEEK RULE - JAN1-DEC31,WORK EFFICIENCY SCHEDULE DEFAULT,WORK EFFICIENCY SCHEDULE DEFAULT,WORK EFFICIENCY SCHEDULE DEFAULT,WORK EFFICIENCY SCHEDULE DEFAULT,WORK EFFICIENCY SCHEDULE DEFAULT,WORK EFFICIENCY SCHEDULE DEFAULT,WORK EFFICIENCY SCHEDULE DEFAULT,WORK EFFICIENCY SCHEDULE DEFAULT,WORK EFFICIENCY SCHEDULE DEFAULT,WORK EFFICIENCY SCHEDULE DEFAULT,WORK EFFICIENCY SCHEDULE DEFAULT,WORK EFFICIENCY SCHEDULE DEFAULT
Schedule:Week:Daily,BASEMENT ZN THERMOSTAT SCHEDULE_wk_1,BASEMENT ZN THERMOSTAT SCHEDULE_dy_1,BASEMENT ZN THERMOSTAT SCHEDULE_dy_1,BASEMENT ZN THERMOSTAT SCHEDULE_dy_1,BASEMENT ZN THERMOSTAT SCHEDULE_dy_1,BASEMENT ZN THERMOSTAT SCHEDULE_dy_1,BASEMENT ZN THERMOSTAT SCHEDULE_dy_1,BASEMENT ZN THERMOSTAT SCHEDULE_dy_1,BASEMENT ZN THERMOSTAT SCHEDULE_dy_1,BASEMENT ZN THERMOSTAT SCHEDULE_dy_1,BASEMENT ZN THERMOSTAT SCHEDULE_dy_1,BASEMENT ZN THERMOSTAT SCHEDULE_dy_1,BASEMENT ZN THERMOSTAT SCHEDULE_dy_1
Schedule:Week:Daily,CORE_BOTTOM ZN THERMOSTAT SCHEDULE_wk_1,CORE_BOTTOM ZN THERMOSTAT SCHEDULE_dy_1,CORE_BOTTOM ZN THERMOSTAT SCHEDULE_dy_1,CORE_BOTTOM ZN THERMOSTAT SCHEDULE_dy_1,CORE_BOTTOM ZN THERMOSTAT SCHEDULE_dy_1,CORE_BOTTOM ZN THERMOSTAT SCHEDULE_dy_1,CORE_BOTTOM ZN THERMOSTAT SCHEDULE_dy_1,CORE_BOTTOM ZN THERMOSTAT SCHEDULE_dy_1,CORE_BOTTOM ZN THERMOSTAT SCHEDULE_dy_1,CORE_BOTTOM ZN THERMOSTAT SCHEDULE_dy_1,CORE_BOTTOM ZN THERMOSTAT SCHEDULE_dy_1,CORE_BOTTOM ZN THERMOSTAT SCHEDULE_dy_1,CORE_BOTTOM ZN THERMOSTAT SCHEDULE_dy_1
Schedule:Week:Daily,CORE_MID ZN THERMOSTAT SCHEDULE_wk_1,CORE_MID ZN THERMOSTAT SCHEDULE_dy_1,CORE_MID ZN THERMOSTAT SCHEDULE_dy_1,CORE_MID ZN THERMOSTAT SCHEDULE_dy_1,CORE_MID ZN THERMOSTAT SCHEDULE_dy_1,CORE_MID ZN THERMOSTAT SCHEDULE_dy_1,CORE_MID ZN THERMOSTAT SCHEDULE_dy_1,CORE_MID ZN THERMOSTAT SCHEDULE_dy_1,CORE_MID ZN THERMOSTAT SCHEDULE_dy_1,CORE_MID ZN THERMOSTAT SCHEDULE_dy_1,CORE_MID ZN THERMOSTAT SCHEDULE_dy_1,CORE_MID ZN THERMOSTAT SCHEDULE_dy_1,CORE_MID ZN THERMOSTAT SCHEDULE_dy_1
Schedule:Week:Daily,CORE_TOP ZN THERMOSTAT SCHEDULE_wk_1,CORE_TOP ZN THERMOSTAT SCHEDULE_dy_1,CORE_TOP ZN THERMOSTAT SCHEDULE_dy_1,CORE_TOP ZN THERMOSTAT SCHEDULE_dy_1,CORE_TOP ZN THERMOSTAT SCHEDULE_dy_1,CORE_TOP ZN THERMOSTAT SCHEDULE_dy_1,CORE_TOP ZN THERMOSTAT SCHEDULE_dy_1,CORE_TOP ZN THERMOSTAT SCHEDULE_dy_1,CORE_TOP ZN THERMOSTAT SCHEDULE_dy_1,CORE_TOP ZN THERMOSTAT SCHEDULE_dy_1,CORE_TOP ZN THERMOSTAT SCHEDULE_dy_1,CORE_TOP ZN THERMOSTAT SCHEDULE_dy_1,CORE_TOP ZN THERMOSTAT SCHEDULE_dy_1
Schedule:Week:Daily,DATACENTER_BASEMENT_ZN_6 ZN THERMOSTAT SCHEDULE_wk_1,DATACENTER_BASEMENT_ZN_6 ZN THERMOSTAT SCHEDULE_dy_1,DATACENTER_BASEMENT_ZN_6 ZN THERMOSTAT SCHEDULE_dy_1,DATACENTER_BASEMENT_ZN_6 ZN THERMOSTAT SCHEDULE_dy_1,DATACENTER_BASEMENT_ZN_6 ZN THERMOSTAT SCHEDULE_dy_1,DATACENTER_BASEMENT_ZN_6 ZN THERMOSTAT SCHEDULE_dy_1,DATACENTER_BASEMENT_ZN_6 ZN THERMOSTAT SCHEDULE_dy_1,DATACENTER_BASEMENT_ZN_6 ZN THERMOSTAT SCHEDULE_dy_1,DATACENTER_BASEMENT_ZN_6 ZN THERMOSTAT SCHEDULE_dy_1,DATACENTER_BASEMENT_ZN_6 ZN THERMOSTAT SCHEDULE_dy_1,DATACENTER_BASEMENT_ZN_6 ZN THERMOSTAT SCHEDULE_dy_1,DATACENTER_BASEMENT_ZN_6 ZN THERMOSTAT SCHEDULE_dy_1,DATACENTER_BASEMENT_ZN_6 ZN THERMOSTAT SCHEDULE_dy_1
Schedule:Week:Daily,DATACENTER_BOT_ZN_6 ZN THERMOSTAT SCHEDULE_wk_1,DATACENTER_BOT_ZN_6 ZN THERMOSTAT SCHEDULE_dy_1,DATACENTER_BOT_ZN_6 ZN THERMOSTAT SCHEDULE_dy_1,DATACENTER_BOT_ZN_6 ZN THERMOSTAT SCHEDULE_dy_1,DATACENTER_BOT_ZN_6 ZN THERMOSTAT SCHEDULE_dy_1,DATACENTER_BOT_ZN_6 ZN THERMOSTAT SCHEDULE_dy_1,DATACENTER_BOT_ZN_6 ZN THERMOSTAT SCHEDULE_dy_1,DATACENTER_BOT_ZN_6 ZN THERMOSTAT SCHEDULE_dy_1,DATACENTER_BOT_ZN_6 ZN THERMOSTAT SCHEDULE_dy_1,DATACENTER_BOT_ZN_6 ZN THERMOSTAT SCHEDULE_dy_1,DATACENTER_BOT_ZN_6 ZN THERMOSTAT SCHEDULE_dy_1,DATACENTER_BOT_ZN_6 ZN THERMOSTAT SCHEDULE_dy_1,DATACENTER_BOT_ZN_6 ZN THERMOSTAT SCHEDULE_dy_1
Schedule:Week:Daily,DATACENTER_MID_ZN_6 ZN THERMOSTAT SCHEDULE_wk_1,DATACENTER_MID_ZN_6 ZN THERMOSTAT SCHEDULE_dy_1,DATACENTER_MID_ZN_6 ZN THERMOSTAT SCHEDULE_dy_1,DATACENTER_MID_ZN_6 ZN THERMOSTAT SCHEDULE_dy_1,DATACENTER_MID_ZN_6 ZN THERMOSTAT SCHEDULE_dy_1,DATACENTER_MID_ZN_6 ZN THERMOSTAT SCHEDULE_dy_1,DATACENTER_MID_ZN_6 ZN THERMOSTAT SCHEDULE_dy_1,DATACENTER_MID_ZN_6 ZN THERMOSTAT SCHEDULE_dy_1,DATACENTER_MID_ZN_6 ZN THERMOSTAT SCHEDULE_dy_1,DATACENTER_MID_ZN_6 ZN THERMOSTAT SCHEDULE_dy_1,DATACENTER_MID_ZN_6 ZN THERMOSTAT SCHEDULE_dy_1,DATACENTER_MID_ZN_6 ZN THERMOSTAT SCHEDULE_dy_1,DATACENTER_MID_ZN_6 ZN THERMOSTAT SCHEDULE_dy_1
Schedule:Week:Daily,DATACENTER_TOP_ZN_6 ZN THERMOSTAT SCHEDULE_wk_1,DATACENTER_TOP_ZN_6 ZN THERMOSTAT SCHEDULE_dy_1,DATACENTER_TOP_ZN_6 ZN THERMOSTAT SCHEDULE_dy_1,DATACENTER_TOP_ZN_6 ZN THERMOSTAT SCHEDULE_dy_1,DATACENTER_TOP_ZN_6 ZN THERMOSTAT SCHEDULE_dy_1,DATACENTER_TOP_ZN_6 ZN THERMOSTAT SCHEDULE_dy_1,DATACENTER_TOP_ZN_6 ZN THERMOSTAT SCHEDULE_dy_1,DATACENTER_TOP_ZN_6 ZN THERMOSTAT SCHEDULE_dy_1,DATACENTER_TOP_ZN_6 ZN THERMOSTAT SCHEDULE_dy_1,DATACENTER_TOP_ZN_6 ZN THERMOSTAT SCHEDULE_dy_1,DATACENTER_TOP_ZN_6 ZN THERMOSTAT SCHEDULE_dy_1,DATACENTER_TOP_ZN_6 ZN THERMOSTAT SCHEDULE_dy_1,DATACENTER_TOP_ZN_6 ZN THERMOSTAT SCHEDULE_dy_1
Schedule:Week:Daily,PERIMETER_BOT_ZN_1 ZN THERMOSTAT SCHEDULE_wk_1,PERIMETER_BOT_ZN_1 ZN THERMOSTAT SCHEDULE_dy_1,PERIMETER_BOT_ZN_1 ZN THERMOSTAT SCHEDULE_dy_1,PERIMETER_BOT_ZN_1 ZN THERMOSTAT SCHEDULE_dy_1,PERIMETER_BOT_ZN_1 ZN THERMOSTAT SCHEDULE_dy_1,PERIMETER_BOT_ZN_1 ZN THERMOSTAT SCHEDULE_dy_1,PERIMETER_BOT_ZN_1 ZN THERMOSTAT SCHEDULE_dy_1,PERIMETER_BOT_ZN_1 ZN THERMOSTAT SCHEDULE_dy_1,PERIMETER_BOT_ZN_1 ZN THERMOSTAT SCHEDULE_dy_1,PERIMETER_BOT_ZN_1 ZN THERMOSTAT SCHEDULE_dy_1,PERIMETER_BOT_ZN_1 ZN THERMOSTAT SCHEDULE_dy_1,PERIMETER_BOT_ZN_1 ZN THERMOSTAT SCHEDULE_dy_1,PERIMETER_BOT_ZN_1 ZN THERMOSTAT SCHEDULE_dy_1
Schedule:Week:Daily,PERIMETER_BOT_ZN_2 ZN THERMOSTAT SCHEDULE_wk_1,PERIMETER_BOT_ZN_2 ZN THERMOSTAT SCHEDULE_dy_1,PERIMETER_BOT_ZN_2 ZN THERMOSTAT SCHEDULE_dy_1,PERIMETER_BOT_ZN_2 ZN THERMOSTAT SCHEDULE_dy_1,PERIMETER_BOT_ZN_2 ZN THERMOSTAT SCHEDULE_dy_1,PERIMETER_BOT_ZN_2 ZN THERMOSTAT SCHEDULE_dy_1,PERIMETER_BOT_ZN_2 ZN THERMOSTAT SCHEDULE_dy_1,PERIMETER_BOT_ZN_2 ZN THERMOSTAT SCHEDULE_dy_1,PERIMETER_BOT_ZN_2 ZN THERMOSTAT SCHEDULE_dy_1,PERIMETER_BOT_ZN_2 ZN THERMOSTAT SCHEDULE_dy_1,PERIMETER_BOT_ZN_2 ZN THERMOSTAT SCHEDULE_dy_1,PERIMETER_BOT_ZN_2 ZN THERMOSTAT SCHEDULE_dy_1,PERIMETER_BOT_ZN_2 ZN THERMOSTAT SCHEDULE_dy_1
Schedule:Week:Daily,PERIMETER_BOT_ZN_3 ZN THERMOSTAT SCHEDULE_wk_1,PERIMETER_BOT_ZN_3 ZN THERMOSTAT SCHEDULE_dy_1,PERIMETER_BOT_ZN_3 ZN THERMOSTAT SCHEDULE_dy_1,PERIMETER_BOT_ZN_3 ZN THERMOSTAT SCHEDULE_dy_1,PERIMETER_BOT_ZN_3 ZN THERMOSTAT SCHEDULE_dy_1,PERIMETER_BOT_ZN_3 ZN THERMOSTAT SCHEDULE_dy_1,PERIMETER_BOT_ZN_3 ZN THERMOSTAT SCHEDULE_dy_1,PERIMETER_BOT_ZN_3 ZN THERMOSTAT SCHEDULE_dy_1,PERIMETER_BOT_ZN_3 ZN THERMOSTAT SCHEDULE_dy_1,PERIMETER_BOT_ZN_3 ZN THERMOSTAT SCHEDULE_dy_1,PERIMETER_BOT_ZN_3 ZN THERMOSTAT SCHEDULE_dy_1,PERIMETER_BOT_ZN_3 ZN THERMOSTAT SCHEDULE_dy_1,PERIMETER_BOT_ZN_3 ZN THERMOSTAT SCHEDULE_dy_1
Schedule:Week:Daily,PERIMETER_BOT_ZN_4 ZN THERMOSTAT SCHEDULE_wk_1,PERIMETER_BOT_ZN_4 ZN THERMOSTAT SCHEDULE_dy_1,PERIMETER_BOT_ZN_4 ZN THERMOSTAT SCHEDULE_dy_1,PERIMETER_BOT_ZN_4 ZN THERMOSTAT SCHEDULE_dy_1,PERIMETER_BOT_ZN_4 ZN THERMOSTAT SCHEDULE_dy_1,PERIMETER_BOT_ZN_4 ZN THERMOSTAT SCHEDULE_dy_1,PERIMETER_BOT_ZN_4 ZN THERMOSTAT SCHEDULE_dy_1,PERIMETER_BOT_ZN_4 ZN THERMOSTAT SCHEDULE_dy_1,PERIMETER_BOT_ZN_4 ZN THERMOSTAT SCHEDULE_dy_1,PERIMETER_BOT_ZN_4 ZN THERMOSTAT SCHEDULE_dy_1,PERIMETER_BOT_ZN_4 ZN THERMOSTAT SCHEDULE_dy_1,PERIMETER_BOT_ZN_4 ZN THERMOSTAT SCHEDULE_dy_1,PERIMETER_BOT_ZN_4 ZN THERMOSTAT SCHEDULE_dy_1
Schedule:Week:Daily,PERIMETER_MID_ZN_1 ZN THERMOSTAT SCHEDULE_wk_1,PERIMETER_MID_ZN_1 ZN THERMOSTAT SCHEDULE_dy_1,PERIMETER_MID_ZN_1 ZN THERMOSTAT SCHEDULE_dy_1,PERIMETER_MID_ZN_1 ZN THERMOSTAT SCHEDULE_dy_1,PERIMETER_MID_ZN_1 ZN THERMOSTAT SCHEDULE_dy_1,PERIMETER_MID_ZN_1 ZN THERMOSTAT SCHEDULE_dy_1,PERIMETER_MID_ZN_1 ZN THERMOSTAT SCHEDULE_dy_1,PERIMETER_MID_ZN_1 ZN THERMOSTAT SCHEDULE_dy_1,PERIMETER_MID_ZN_1 ZN THERMOSTAT SCHEDULE_dy_1,PERIMETER_MID_ZN_1 ZN THERMOSTAT SCHEDULE_dy_1,PERIMETER_MID_ZN_1 ZN THERMOSTAT SCHEDULE_dy_1,PERIMETER_MID_ZN_1 ZN THERMOSTAT SCHEDULE_dy_1,PERIMETER_MID_ZN_1 ZN THERMOSTAT SCHEDULE_dy_1
Schedule:Week:Daily,PERIMETER_MID_ZN_2 ZN THERMOSTAT SCHEDULE_wk_1,PERIMETER_MID_ZN_2 ZN THERMOSTAT SCHEDULE_dy_1,PERIMETER_MID_ZN_2 ZN THERMOSTAT SCHEDULE_dy_1,PERIMETER_MID_ZN_2 ZN THERMOSTAT SCHEDULE_dy_1,PERIMETER_MID_ZN_2 ZN THERMOSTAT SCHEDULE_dy_1,PERIMETER_MID_ZN_2 ZN THERMOSTAT SCHEDULE_dy_1,PERIMETER_MID_ZN_2 ZN THERMOSTAT SCHEDULE_dy_1,PERIMETER_MID_ZN_2 ZN THERMOSTAT SCHEDULE_dy_1,PERIMETER_MID_ZN_2 ZN THERMOSTAT SCHEDULE_dy_1,PERIMETER_MID_ZN_2 ZN THERMOSTAT SCHEDULE_dy_1,PERIMETER_MID_ZN_2 ZN THERMOSTAT SCHEDULE_dy_1,PERIMETER_MID_ZN_2 ZN THERMOSTAT SCHEDULE_dy_1,PERIMETER_MID_ZN_2 ZN THERMOSTAT SCHEDULE_dy_1
Schedule:Week:Daily,PERIMETER_MID_ZN_3 ZN THERMOSTAT SCHEDULE_wk_1,PERIMETER_MID_ZN_3 ZN THERMOSTAT SCHEDULE_dy_1,PERIMETER_MID_ZN_3 ZN THERMOSTAT SCHEDULE_dy_1,PERIMETER_MID_ZN_3 ZN THERMOSTAT SCHEDULE_dy_1,PERIMETER_MID_ZN_3 ZN THERMOSTAT SCHEDULE_dy_1,PERIMETER_MID_ZN_3 ZN THERMOSTAT SCHEDULE_dy_1,PERIMETER_MID_ZN_3 ZN THERMOSTAT SCHEDULE_dy_1,PERIMETER_MID_ZN_3 ZN THERMOSTAT SCHEDULE_dy_1,PERIMETER_MID_ZN_3 ZN THERMOSTAT SCHEDULE_dy_1,PERIMETER_MID_ZN_3 ZN THERMOSTAT SCHEDULE_dy_1,PERIMETER_MID_ZN_3 ZN THERMOSTAT SCHEDULE_dy_1,PERIMETER_MID_ZN_3 ZN THERMOSTAT SCHEDULE_dy_1,PERIMETER_MID_ZN_3 ZN THERMOSTAT SCHEDULE_dy_1
Schedule:Week:Daily,PERIMETER_MID_ZN_4 ZN THERMOSTAT SCHEDULE_wk_1,PERIMETER_MID_ZN_4 ZN THERMOSTAT SCHEDULE_dy_1,PERIMETER_MID_ZN_4 ZN THERMOSTAT SCHEDULE_dy_1,PERIMETER_MID_ZN_4 ZN THERMOSTAT SCHEDULE_dy_1,PERIMETER_MID_ZN_4 ZN THERMOSTAT SCHEDULE_dy_1,PERIMETER_MID_ZN_4 ZN THERMOSTAT SCHEDULE_dy_1,PERIMETER_MID_ZN_4 ZN THERMOSTAT SCHEDULE_dy_1,PERIMETER_MID_ZN_4 ZN THERMOSTAT SCHEDULE_dy_1,PERIMETER_MID_ZN_4 ZN THERMOSTAT SCHEDULE_dy_1,PERIMETER_MID_ZN_4 ZN THERMOSTAT SCHEDULE_dy_1,PERIMETER_MID_ZN_4 ZN THERMOSTAT SCHEDULE_dy_1,PERIMETER_MID_ZN_4 ZN THERMOSTAT SCHEDULE_dy_1,PERIMETER_MID_ZN_4 ZN THERMOSTAT SCHEDULE_dy_1
Schedule:Week:Daily,PERIMETER_TOP_ZN_1 ZN THERMOSTAT SCHEDULE_wk_1,PERIMETER_TOP_ZN_1 ZN THERMOSTAT SCHEDULE_dy_1,PERIMETER_TOP_ZN_1 ZN THERMOSTAT SCHEDULE_dy_1,PERIMETER_TOP_ZN_1 ZN THERMOSTAT SCHEDULE_dy_1,PERIMETER_TOP_ZN_1 ZN THERMOSTAT SCHEDULE_dy_1,PERIMETER_TOP_ZN_1 ZN THERMOSTAT SCHEDULE_dy_1,PERIMETER_TOP_ZN_1 ZN THERMOSTAT SCHEDULE_dy_1,PERIMETER_TOP_ZN_1 ZN THERMOSTAT SCHEDULE_dy_1,PERIMETER_TOP_ZN_1 ZN THERMOSTAT SCHEDULE_dy_1,PERIMETER_TOP_ZN_1 ZN THERMOSTAT SCHEDULE_dy_1,PERIMETER_TOP_ZN_1 ZN THERMOSTAT SCHEDULE_dy_1,PERIMETER_TOP_ZN_1 ZN THERMOSTAT SCHEDULE_dy_1,PERIMETER_TOP_ZN_1 ZN THERMOSTAT SCHEDULE_dy_1
Schedule:Week:Daily,PERIMETER_TOP_ZN_2 ZN THERMOSTAT SCHEDULE_wk_1,PERIMETER_TOP_ZN_2 ZN THERMOSTAT SCHEDULE_dy_1,PERIMETER_TOP_ZN_2 ZN THERMOSTAT SCHEDULE_dy_1,PERIMETER_TOP_ZN_2 ZN THERMOSTAT SCHEDULE_dy_1,PERIMETER_TOP_ZN_2 ZN THERMOSTAT SCHEDULE_dy_1,PERIMETER_TOP_ZN_2 ZN THERMOSTAT SCHEDULE_dy_1,PERIMETER_TOP_ZN_2 ZN THERMOSTAT SCHEDULE_dy_1,PERIMETER_TOP_ZN_2 ZN THERMOSTAT SCHEDULE_dy_1,PERIMETER_TOP_ZN_2 ZN THERMOSTAT SCHEDULE_dy_1,PERIMETER_TOP_ZN_2 ZN THERMOSTAT SCHEDULE_dy_1,PERIMETER_TOP_ZN_2 ZN THERMOSTAT SCHEDULE_dy_1,PERIMETER_TOP_ZN_2 ZN THERMOSTAT SCHEDULE_dy_1,PERIMETER_TOP_ZN_2 ZN THERMOSTAT SCHEDULE_dy_1
Schedule:Week:Daily,PERIMETER_TOP_ZN_3 ZN THERMOSTAT SCHEDULE_wk_1,PERIMETER_TOP_ZN_3 ZN THERMOSTAT SCHEDULE_dy_1,PERIMETER_TOP_ZN_3 ZN THERMOSTAT SCHEDULE_dy_1,PERIMETER_TOP_ZN_3 ZN THERMOSTAT SCHEDULE_dy_1,PERIMETER_TOP_ZN_3 ZN THERMOSTAT SCHEDULE_dy_1,PERIMETER_TOP_ZN_3 ZN THERMOSTAT SCHEDULE_dy_1,PERIMETER_TOP_ZN_3 ZN THERMOSTAT SCHEDULE_dy_1,PERIMETER_TOP_ZN_3 ZN THERMOSTAT SCHEDULE_dy_1,PERIMETER_TOP_ZN_3 ZN THERMOSTAT SCHEDULE_dy_1,PERIMETER_TOP_ZN_3 ZN THERMOSTAT SCHEDULE_dy_1,PERIMETER_TOP_ZN_3 ZN THERMOSTAT SCHEDULE_dy_1,PERIMETER_TOP_ZN_3 ZN THERMOSTAT SCHEDULE_dy_1,PERIMETER_TOP_ZN_3 ZN THERMOSTAT SCHEDULE_dy_1
Schedule:Week:Daily,PERIMETER_TOP_ZN_4 ZN THERMOSTAT SCHEDULE_wk_1,PERIMETER_TOP_ZN_4 ZN THERMOSTAT SCHEDULE_dy_1,PERIMETER_TOP_ZN_4 ZN THERMOSTAT SCHEDULE_dy_1,PERIMETER_TOP_ZN_4 ZN THERMOSTAT SCHEDULE_dy_1,PERIMETER_TOP_ZN_4 ZN THERMOSTAT SCHEDULE_dy_1,PERIMETER_TOP_ZN_4 ZN THERMOSTAT SCHEDULE_dy_1,PERIMETER_TOP_ZN_4 ZN THERMOSTAT SCHEDULE_dy_1,PERIMETER_TOP_ZN_4 ZN THERMOSTAT SCHEDULE_dy_1,PERIMETER_TOP_ZN_4 ZN THERMOSTAT SCHEDULE_dy_1,PERIMETER_TOP_ZN_4 ZN THERMOSTAT SCHEDULE_dy_1,PERIMETER_TOP_ZN_4 ZN THERMOSTAT SCHEDULE_dy_1,PERIMETER_TOP_ZN_4 ZN THERMOSTAT SCHEDULE_dy_1,PERIMETER_TOP_ZN_4 ZN THERMOSTAT SCHEDULE_dy_1
Schedule:Week:Daily,ALWAYS ON_wk_1,ALWAYS ON_dy_1,ALWAYS ON_dy_1,ALWAYS ON_dy_1,ALWAYS ON_dy_1,ALWAYS ON_dy_1,ALWAYS ON_dy_1,ALWAYS ON_dy_1,ALWAYS ON_dy_1,ALWAYS ON_dy_1,ALWAYS ON_dy_1,ALWAYS ON_dy_1,ALWAYS ON_dy_1
Schedule:Week:Daily,ALWAYS ON DISCRETE_wk_,ALWAYS ON DISCRETE_dy_,ALWAYS ON DISCRETE_dy_,ALWAYS ON DISCRETE_dy_,ALWAYS ON DISCRETE_dy_,ALWAYS ON DISCRETE_dy_,ALWAYS ON DISCRETE_dy_,ALWAYS ON DISCRETE_dy_,ALWAYS ON DISCRETE_dy_,ALWAYS ON DISCRETE_dy_,ALWAYS ON DISCRETE_dy_,ALWAYS ON DISCRETE_dy_,ALWAYS ON DISCRETE_dy_
Schedule:Week:Daily,ALWAYS OFF DISCRETE_wk_,ALWAYS OFF DISCRETE_dy_,ALWAYS OFF DISCRETE_dy_,ALWAYS OFF DISCRETE_dy_,ALWAYS OFF DISCRETE_dy_,ALWAYS OFF DISCRETE_dy_,ALWAYS OFF DISCRETE_dy_,ALWAYS OFF DISCRETE_dy_,ALWAYS OFF DISCRETE_dy_,ALWAYS OFF DISCRETE_dy_,ALWAYS OFF DISCRETE_dy_,ALWAYS OFF DISCRETE_dy_,ALWAYS OFF DISCRETE_dy_
Schedule:Week:Daily,ALWAYS ON CONTINUOUS_wk_,ALWAYS ON CONTINUOUS_dy_,ALWAYS ON CONTINUOUS_dy_,ALWAYS ON CONTINUOUS_dy_,ALWAYS ON CONTINUOUS_dy_,ALWAYS ON CONTINUOUS_dy_,ALWAYS ON CONTINUOUS_dy_,ALWAYS ON CONTINUOUS_dy_,ALWAYS ON CONTINUOUS_dy_,ALWAYS ON CONTINUOUS_dy_,ALWAYS ON CONTINUOUS_dy_,ALWAYS ON CONTINUOUS_dy_,ALWAYS ON CONTINUOUS_dy_
Schedule,OFFICELARGE HTGSETP_SCH_YES_OPTIMUM,TEMPERATURE,Through Dec 31,OFFICELARGE HTGSETP_SCH_YES_OPTIMUM WEEK RULE - JAN1-DEC31
Schedule,OFFICELARGE CLGSETP_SCH_NO_SETBACK,TEMPERATURE,Through Dec 31,OFFICELARGE CLGSETP_SCH_NO_SETBACK WEEK RULE - JAN1-DEC31
Schedule,OFFICELARGE HTGSETP_DC_SCH,TEMPERATURE,Through Dec 31,OFFICELARGE HTGSETP_DC_SCH WEEK RULE - JAN1-DEC31
Schedule,OFFICELARGE CLGSETP_DC_SCH,TEMPERATURE,Through Dec 31,OFFICELARGE CLGSETP_DC_SCH WEEK RULE - JAN1-DEC31
Schedule,AIR VELOCITY SCHEDULE,VELOCITY,Through Dec 31,AIR VELOCITY SCHEDULE WEEK RULE - JAN1-DEC31
Schedule,CHILLED WATER LOOP TEMP - 44F,TEMPERATURE,Through Dec 31,CHILLED WATER LOOP TEMP - 44F WEEK RULE - JAN1-DEC31
Schedule,CLOTHING SCHEDULE,ANY NUMBER,Through Dec 31,CLOTHING SCHEDULE WEEK RULE - JAN1-DEC31
Schedule,DATACENTER_EQUIP_SCH,FRACTIONAL,Through Jan 28,DATACENTER_EQUIP_SCH WEEK RULE - JAN1-JAN28,Through Feb 03,DATACENTER_EQUIP_SCH WEEK RULE - JAN29-FEB4,Through Feb 24,DATACENTER_EQUIP_SCH WEEK RULE - FEB5-FEB25,Through Mar 04,DATACENTER_EQUIP_SCH WEEK RULE - FEB26-MAR4,Through Mar 25,DATACENTER_EQUIP_SCH WEEK RULE - MAR5-MAR25,Through Apr 01,DATACENTER_EQUIP_SCH WEEK RULE - MAR26-APR1,Through Apr 29,DATACENTER_EQUIP_SCH WEEK RULE - APR2-APR29,Through May 06,DATACENTER_EQUIP_SCH WEEK RULE - APR30-MAY6,Through May 27,DATACENTER_EQUIP_SCH WEEK RULE - MAY7-MAY27,Through Jun 03,DATACENTER_EQUIP_SCH WEEK RULE - MAY28-JUN3,Through Jun 24,DATACENTER_EQUIP_SCH WEEK RULE - JUN4-JUN24,Through Jul 01,DATACENTER_EQUIP_SCH WEEK RULE - JUN25-JUL1,Through Jul 29,DATACENTER_EQUIP_SCH WEEK RULE - JUL2-JUL29,Through Aug 05,DATACENTER_EQUIP_SCH WEEK RULE - JUL30-AUG5,Through Aug 26,DATACENTER_EQUIP_SCH WEEK RULE - AUG6-AUG26,Through Sep 02,DATACENTER_EQUIP_SCH WEEK RULE - AUG27-SEP2,Through Sep 30,DATACENTER_EQUIP_SCH WEEK RULE - SEP3-SEP30,Through Oct 28,DATACENTER_EQUIP_SCH WEEK RULE - OCT1-OCT28,Through Nov 04,DATACENTER_EQUIP_SCH WEEK RULE - OCT29-NOV4,Through Nov 25,DATACENTER_EQUIP_SCH WEEK RULE - NOV5-NOV25,Through Dec 02,DATACENTER_EQUIP_SCH WEEK RULE - NOV26-DEC2,Through Dec 31,DATACENTER_EQUIP_SCH WEEK RULE - DEC3-DEC31
Schedule,FRACTION LATENT - 0.05,FRACTIONAL,Through Dec 31,FRACTION LATENT - 0.05 WEEK RULE - JAN1-DEC31
Schedule,FRACTION SENSIBLE - 0.2,FRACTIONAL,Through Dec 31,FRACTION SENSIBLE - 0.2 WEEK RULE - JAN1-DEC31
Schedule,HEAT PUMP LOOP HIGH TEMP - 87F,TEMPERATURE,Through Dec 31,HEAT PUMP LOOP HIGH TEMP - 87F WEEK RULE - JAN1-DEC31
Schedule,HEAT PUMP LOOP LOW TEMP - 67F,TEMPERATURE,Through Dec 31,HEAT PUMP LOOP LOW TEMP - 67F WEEK RULE - JAN1-DEC31
Schedule,HOT WATER LOOP TEMP - 180F,TEMPERATURE,Through Dec 31,HOT WATER LOOP TEMP - 180F WEEK RULE - JAN1-DEC31
Schedule,LARGE OFFICE BLDG ELEVATORS,FRACTIONAL,Through Dec 31,LARGE OFFICE BLDG ELEVATORS WEEK RULE - JAN1-DEC31
Schedule,MIXED WATER AT FAUCET TEMP - 140F,TEMPERATURE,Through Dec 31,MIXED WATER AT FAUCET TEMP - 140F WEEK RULE - JAN1-DEC31
Schedule,OFFICELARGE ACTIVITY_SCH,ACTIVITYLEVEL,Through Dec 31,OFFICELARGE ACTIVITY_SCH WEEK RULE - JAN1-DEC31
Schedule,OFFICELARGE BLDG_EQUIP_SCH,FRACTIONAL,Through Dec 31,OFFICELARGE BLDG_EQUIP_SCH WEEK RULE - JAN1-DEC31
Schedule,OFFICELARGE BLDG_LIGHT_SCH,FRACTIONAL,Through Dec 31,OFFICELARGE BLDG_LIGHT_SCH WEEK RULE - JAN1-DEC31
Schedule,OFFICELARGE BLDG_OCC_SCH,FRACTIONAL,Through Dec 31,OFFICELARGE BLDG_OCC_SCH WEEK RULE - JAN1-DEC31
Schedule,OFFICELARGE BLDG_SWH_SCH,FRACTIONAL,Through Dec 31,OFFICELARGE BLDG_SWH_SCH WEEK RULE - JAN1-DEC31
Schedule,OFFICELARGE ELEV_LIGHT_FAN_SCH_24_7,FRACTIONAL,Through Dec 31,OFFICELARGE ELEV_LIGHT_FAN_SCH_24_7 WEEK RULE - JAN1-DEC31
Schedule,OFFICELARGE HVACOPERATIONSCHD,,Through Dec 31,OFFICELARGE HVACOPERATIONSCHD WEEK RULE - JAN1-DEC31
Schedule,OFFICELARGE INFIL_SCH_PNNL,FRACTIONAL,Through Dec 31,OFFICELARGE INFIL_SCH_PNNL WEEK RULE - JAN1-DEC31
Schedule,OFFICELARGE MINOA_MOTORIZEDDAMPER_SCHED,FRACTIONAL,Through Dec 31,OFFICELARGE MINOA_MOTORIZEDDAMPER_SCHED WEEK RULE - JAN1-DEC31
Schedule,SERVICE WATER LOOP TEMP - 140F,TEMPERATURE SCHEDULE TYPE LIMITS,Through Dec 31,SERVICE WATER LOOP TEMP - 140F WEEK RULE - JAN1-DEC31
Schedule,SUPPLY AIR TEMP - 55.0F,TEMPERATURE,Through Dec 31,SUPPLY AIR TEMP - 55.0F WEEK RULE - JAN1-DEC31
Schedule,WORK EFFICIENCY SCHEDULE,FRACTIONAL,Through Dec 31,WORK EFFICIENCY SCHEDULE WEEK RULE - JAN1-DEC31
Schedule,BASEMENT ZN THERMOSTAT SCHEDULE,BASEMENT ZN THERMOSTAT SCHEDULE TYPE LIMITS,Through Dec 31,BASEMENT ZN THERMOSTAT SCHEDULE_wk_1
Schedule,CORE_BOTTOM ZN THERMOSTAT SCHEDULE,CORE_BOTTOM ZN THERMOSTAT SCHEDULE TYPE LIMITS,Through Dec 31,CORE_BOTTOM ZN THERMOSTAT SCHEDULE_wk_1
Schedule,CORE_MID ZN THERMOSTAT SCHEDULE,CORE_MID ZN THERMOSTAT SCHEDULE TYPE LIMITS,Through Dec 31,CORE_MID ZN THERMOSTAT SCHEDULE_wk_1
Schedule,CORE_TOP ZN THERMOSTAT SCHEDULE,CORE_TOP ZN THERMOSTAT SCHEDULE TYPE LIMITS,Through Dec 31,CORE_TOP ZN THERMOSTAT SCHEDULE_wk_1
Schedule,DATACENTER_BASEMENT_ZN_6 ZN THERMOSTAT SCHEDULE,DATACENTER_BASEMENT_ZN_6 ZN THERMOSTAT SCHEDULE TYPE LIMITS,Through Dec 31,DATACENTER_BASEMENT_ZN_6 ZN THERMOSTAT SCHEDULE_wk_1
Schedule,DATACENTER_BOT_ZN_6 ZN THERMOSTAT SCHEDULE,DATACENTER_BOT_ZN_6 ZN THERMOSTAT SCHEDULE TYPE LIMITS,Through Dec 31,DATACENTER_BOT_ZN_6 ZN THERMOSTAT SCHEDULE_wk_1
Schedule,DATACENTER_MID_ZN_6 ZN THERMOSTAT SCHEDULE,DATACENTER_MID_ZN_6 ZN THERMOSTAT SCHEDULE TYPE LIMITS,Through Dec 31,DATACENTER_MID_ZN_6 ZN THERMOSTAT SCHEDULE_wk_1
Schedule,DATACENTER_TOP_ZN_6 ZN THERMOSTAT SCHEDULE,DATACENTER_TOP_ZN_6 ZN THERMOSTAT SCHEDULE TYPE LIMITS,Through Dec 31,DATACENTER_TOP_ZN_6 ZN THERMOSTAT SCHEDULE_wk_1
Schedule,PERIMETER_BOT_ZN_1 ZN THERMOSTAT SCHEDULE,PERIMETER_BOT_ZN_1 ZN THERMOSTAT SCHEDULE TYPE LIMITS,Through Dec 31,PERIMETER_BOT_ZN_1 ZN THERMOSTAT SCHEDULE_wk_1
Schedule,PERIMETER_BOT_ZN_2 ZN THERMOSTAT SCHEDULE,PERIMETER_BOT_ZN_2 ZN THERMOSTAT SCHEDULE TYPE LIMITS,Through Dec 31,PERIMETER_BOT_ZN_2 ZN THERMOSTAT SCHEDULE_wk_1
Schedule,PERIMETER_BOT_ZN_3 ZN THERMOSTAT SCHEDULE,PERIMETER_BOT_ZN_3 ZN THERMOSTAT SCHEDULE TYPE LIMITS,Through Dec 31,PERIMETER_BOT_ZN_3 ZN THERMOSTAT SCHEDULE_wk_1
Schedule,PERIMETER_BOT_ZN_4 ZN THERMOSTAT SCHEDULE,PERIMETER_BOT_ZN_4 ZN THERMOSTAT SCHEDULE TYPE LIMITS,Through Dec 31,PERIMETER_BOT_ZN_4 ZN THERMOSTAT SCHEDULE_wk_1
Schedule,PERIMETER_MID_ZN_1 ZN THERMOSTAT SCHEDULE,PERIMETER_MID_ZN_1 ZN THERMOSTAT SCHEDULE TYPE LIMITS,Through Dec 31,PERIMETER_MID_ZN_1 ZN THERMOSTAT SCHEDULE_wk_1
Schedule,PERIMETER_MID_ZN_2 ZN THERMOSTAT SCHEDULE,PERIMETER_MID_ZN_2 ZN THERMOSTAT SCHEDULE TYPE LIMITS,Through Dec 31,PERIMETER_MID_ZN_2 ZN THERMOSTAT SCHEDULE_wk_1
Schedule,PERIMETER_MID_ZN_3 ZN THERMOSTAT SCHEDULE,PERIMETER_MID_ZN_3 ZN THERMOSTAT SCHEDULE TYPE LIMITS,Through Dec 31,PERIMETER_MID_ZN_3 ZN THERMOSTAT SCHEDULE_wk_1
Schedule,PERIMETER_MID_ZN_4 ZN THERMOSTAT SCHEDULE,PERIMETER_MID_ZN_4 ZN THERMOSTAT SCHEDULE TYPE LIMITS,Through Dec 31,PERIMETER_MID_ZN_4 ZN THERMOSTAT SCHEDULE_wk_1
Schedule,PERIMETER_TOP_ZN_1 ZN THERMOSTAT SCHEDULE,PERIMETER_TOP_ZN_1 ZN THERMOSTAT SCHEDULE TYPE LIMITS,Through Dec 31,PERIMETER_TOP_ZN_1 ZN THERMOSTAT SCHEDULE_wk_1
Schedule,PERIMETER_TOP_ZN_2 ZN THERMOSTAT SCHEDULE,PERIMETER_TOP_ZN_2 ZN THERMOSTAT SCHEDULE TYPE LIMITS,Through Dec 31,PERIMETER_TOP_ZN_2 ZN THERMOSTAT SCHEDULE_wk_1
Schedule,PERIMETER_TOP_ZN_3 ZN THERMOSTAT SCHEDULE,PERIMETER_TOP_ZN_3 ZN THERMOSTAT SCHEDULE TYPE LIMITS,Through Dec 31,PERIMETER_TOP_ZN_3 ZN THERMOSTAT SCHEDULE_wk_1
Schedule,PERIMETER_TOP_ZN_4 ZN THERMOSTAT SCHEDULE,PERIMETER_TOP_ZN_4 ZN THERMOSTAT SCHEDULE TYPE LIMITS,Through Dec 31,PERIMETER_TOP_ZN_4 ZN THERMOSTAT SCHEDULE_wk_1
Schedule,ALWAYS ON,ONOFF,Through Dec 31,ALWAYS ON_wk_1
Schedule,ALWAYS ON DISCRETE,ALWAYS ON DISCRETE LIMITS,Through Dec 31,ALWAYS ON DISCRETE_wk_
Schedule,ALWAYS OFF DISCRETE,,Through Dec 31,ALWAYS OFF DISCRETE_wk_
Schedule,ALWAYS ON CONTINUOUS,,Through Dec 31,ALWAYS ON CONTINUOUS_wk_
! <Building Information>, Building Name,North Axis {deg},Terrain,  Loads Convergence Tolerance Value,Temperature Convergence Tolerance Value,  Solar Distribution,Maximum Number of Warmup Days,Minimum Number of Warmup Days
 Building Information,-LargeOffice-ASHRAE 169-2013-2A created: 2023-01-18 17:07:04 -0800,0.000,City,4.00000E-002,0.20000,FullInteriorAndExterior,25,6
! <Inside Convection Algorithm>, Algorithm {Simple | TARP | CeilingDiffuser | AdaptiveConvectionAlgorithm}
Inside Convection Algorithm,TARP
! <Outside Convection Algorithm>, Algorithm {SimpleCombined | TARP | MoWitt | DOE-2 | AdaptiveConvectionAlgorithm}
Outside Convection Algorithm,TARP
! <Sky Radiance Distribution>, Value {Anisotropic}
Sky Radiance Distribution,Anisotropic
! <Zone Air Solution Algorithm>, Algorithm {ThirdOrderBackwardDifference | AnalyticalSolution | EulerMethod}, Space Heat Balance Sizing, Space Heat Balance Simulation
 Zone Air Solution Algorithm, ThirdOrderBackwardDifference, No, No
! <Zone Air Carbon Dioxide Balance Simulation>, Simulation {Yes/No}, Carbon Dioxide Concentration
 Zone Air Carbon Dioxide Balance Simulation, No,N/A
! <Zone Air Generic Contaminant Balance Simulation>, Simulation {Yes/No}, Generic Contaminant Concentration
 Zone Air Generic Contaminant Balance Simulation, No,N/A
! <Zone Air Mass Flow Balance Simulation>, Enforce Mass Balance, Adjust Zone Mixing and Return {AdjustMixingOnly | AdjustReturnOnly | AdjustMixingThenReturn | AdjustReturnThenMixing | None}, Adjust Zone Infiltration {AddInfiltration | AdjustInfiltration | None}, Infiltration Zones {MixingSourceZonesOnly | AllZones}
 Zone Air Mass Flow Balance Simulation, No,N/A,N/A,N/A
! <HVACSystemRootFindingAlgorithm>, Value {RegulaFalsi | Bisection | BisectionThenRegulaFalsi | RegulaFalsiThenBisection}
 HVACSystemRootFindingAlgorithm, RegulaFalsi
! <Environment:Site Atmospheric Variation>,Wind Speed Profile Exponent {},Wind Speed Profile Boundary Layer Thickness {m},Air Temperature Gradient Coefficient {K/m}
Environment:Site Atmospheric Variation,0.330,460.000,6.500000E-003
! <Surface Geometry>,Starting Corner,Vertex Input Direction,Coordinate System,Daylight Reference Point Coordinate System,Rectangular (Simple) Surface Coordinate System
 Surface Geometry,UpperLeftCorner,Counterclockwise,RelativeCoordinateSystem,RelativeCoordinateSystem,RelativeToZoneOrigin
[...]
 Warmup Convergence Information,MIDFLOOR_PLENUM ZN,SizingPeriod: TAMPA-MACDILL.AFB_FL_USA ANN CLG .4% CONDNS DB=>MWB HVAC Sizing Pass 1,4.5923025511E-002,7.5298865063E-002,Pass,Pass,0.2003311443,0.3931408471,Pass,Pass
 Warmup Convergence Information,PERIMETER_BOT_ZN_1 ZN,SizingPeriod: TAMPA-MACDILL.AFB_FL_USA ANN CLG .4% CONDNS DB=>MWB HVAC Sizing Pass 1,0.3240224239,0.6147833111,Pass,Pass,0.1884862550,0.3628545874,Pass,Pass
 Warmup Convergence Information,PERIMETER_BOT_ZN_2 ZN,SizingPeriod: TAMPA-MACDILL.AFB_FL_USA ANN CLG .4% CONDNS DB=>MWB HVAC Sizing Pass 1,0.3476033513,0.6557288820,Pass,Pass,0.1852492555,0.3619504093,Pass,Pass
 Warmup Convergence Information,PERIMETER_BOT_ZN_3 ZN,SizingPeriod: TAMPA-MACDILL.AFB_FL_USA ANN CLG .4% CONDNS DB=>MWB HVAC Sizing Pass 1,0.2298973504,0.4372447709,Pass,Pass,0.1844432961,0.3693553214,Pass,Pass
 Warmup Convergence Information,PERIMETER_BOT_ZN_4 ZN,SizingPeriod: TAMPA-MACDILL.AFB_FL_USA ANN CLG .4% CONDNS DB=>MWB HVAC Sizing Pass 1,0.5432049040,1.0359580996,Pass,Pass,0.1885385651,0.3632487844,Pass,Pass
 Warmup Convergence Information,PERIMETER_MID_ZN_1 ZN,SizingPeriod: TAMPA-MACDILL.AFB_FL_USA ANN CLG .4% CONDNS DB=>MWB HVAC Sizing Pass 1,0.2963967181,0.5749417474,Pass,Pass,0.1880802588,0.3688003507,Pass,Pass
 Warmup Convergence Information,PERIMETER_MID_ZN_2 ZN,SizingPeriod: TAMPA-MACDILL.AFB_FL_USA ANN CLG .4% CONDNS DB=>MWB HVAC Sizing Pass 1,0.3211864643,0.6254965132,Pass,Pass,0.1861253975,0.3650635371,Pass,Pass
 Warmup Convergence Information,PERIMETER_MID_ZN_3 ZN,SizingPeriod: TAMPA-MACDILL.AFB_FL_USA ANN CLG .4% CONDNS DB=>MWB HVAC Sizing Pass 1,0.1927368759,0.3627755952,Pass,Pass,0.1850390248,0.3841397591,Pass,Pass
 Warmup Convergence Information,PERIMETER_MID_ZN_4 ZN,SizingPeriod: TAMPA-MACDILL.AFB_FL_USA ANN CLG .4% CONDNS DB=>MWB HVAC Sizing Pass 1,0.3497894549,0.6774042231,Pass,Pass,0.1895244092,0.3678652252,Pass,Pass
 Warmup Convergence Information,PERIMETER_TOP_ZN_1 ZN,SizingPeriod: TAMPA-MACDILL.AFB_FL_USA ANN CLG .4% CONDNS DB=>MWB HVAC Sizing Pass 1,0.3050803236,0.5945258561,Pass,Pass,0.1883623543,0.3690005394,Pass,Pass
 Warmup Convergence Information,PERIMETER_TOP_ZN_2 ZN,SizingPeriod: TAMPA-MACDILL.AFB_FL_USA ANN CLG .4% CONDNS DB=>MWB HVAC Sizing Pass 1,0.3253428304,0.6363546026,Pass,Pass,0.1867256137,0.3656608035,Pass,Pass
 Warmup Convergence Information,PERIMETER_TOP_ZN_3 ZN,SizingPeriod: TAMPA-MACDILL.AFB_FL_USA ANN CLG .4% CONDNS DB=>MWB HVAC Sizing Pass 1,0.2028788981,0.3900138217,Pass,Pass,0.1860554440,0.3836871184,Pass,Pass
 Warmup Convergence Information,PERIMETER_TOP_ZN_4 ZN,SizingPeriod: TAMPA-MACDILL.AFB_FL_USA ANN CLG .4% CONDNS DB=>MWB HVAC Sizing Pass 1,0.3581113139,0.6986297334,Pass,Pass,0.1895970196,0.3681382341,Pass,Pass
 Warmup Convergence Information,TOPFLOOR_PLENUM ZN,SizingPeriod: TAMPA-MACDILL.AFB_FL_USA ANN CLG .4% CONDNS DB=>MWB HVAC Sizing Pass 1,5.9681627088E-002,7.8644744356E-002,Pass,Pass,0.2057920465,0.3900285554,Pass,Pass
Environment:Design Day Data,4.60,0.00,DefaultMultipliers,Wetbulb,4.60,{C},101229,10,2.5,0.00,No,No
Environment:Design Day Misc, 21,1229.0,0.1415,5.7310E-002,1.0,-11.15,-20.1,ASHRAEClearSky
Environment:WarmupDays,  8
 Warmup Convergence Information,BASEMENT ZN,SizingPeriod: TAMPA-MACDILL.AFB_FL_USA ANN HTG 99.6% CONDNS DB HVAC Sizing Pass 1,3.6484808834E-002,8.8226093336E-002,Pass,Pass,6.1186781401E-002,0.2253890037,Pass,Pass
 Warmup Convergence Information,CORE_BOTTOM ZN,SizingPeriod: TAMPA-MACDILL.AFB_FL_USA ANN HTG 99.6% CONDNS DB HVAC Sizing Pass 1,3.9374630936E-002,0.1026070353,Pass,Pass,0.1454758695,0.3600032503,Pass,Pass
 Warmup Convergence Information,CORE_MID ZN,SizingPeriod: TAMPA-MACDILL.AFB_FL_USA ANN HTG 99.6% CONDNS DB HVAC Sizing Pass 1,0.1192797717,0.1701031653,Pass,Pass,0.2714126903,0.4633879632,Pass,Pass
 Warmup Convergence Information,CORE_TOP ZN,SizingPeriod: TAMPA-MACDILL.AFB_FL_USA ANN HTG 99.6% CONDNS DB HVAC Sizing Pass 1,0.1472585642,0.2415579301,Pass,Pass,0.2816246676,0.4353281512,Pass,Pass
 Warmup Convergence Information,DATACENTER_BASEMENT_ZN_6 ZN,SizingPeriod: TAMPA-MACDILL.AFB_FL_USA ANN HTG 99.6% CONDNS DB HVAC Sizing Pass 1,3.1579677145E-015,2.7490875309E-015,Pass,Pass,1.1945047620E-004,4.1554768803E-005,Pass,Pass
 Warmup Convergence Information,DATACENTER_BOT_ZN_6 ZN,SizingPeriod: TAMPA-MACDILL.AFB_FL_USA ANN HTG 99.6% CONDNS DB HVAC Sizing Pass 1,1.2677894840E-002,1.0806849570E-002,Pass,Pass,2.2906957398E-003,3.1108027122E-003,Pass,Pass
 Warmup Convergence Information,DATACENTER_MID_ZN_6 ZN,SizingPeriod: TAMPA-MACDILL.AFB_FL_USA ANN HTG 99.6% CONDNS DB HVAC Sizing Pass 1,3.0258746650E-002,2.6577391417E-002,Pass,Pass,3.6275299016E-003,5.5720727346E-003,Pass,Pass
 Warmup Convergence Information,DATACENTER_TOP_ZN_6 ZN,SizingPeriod: TAMPA-MACDILL.AFB_FL_USA ANN HTG 99.6% CONDNS DB HVAC Sizing Pass 1,3.4750276896E-002,3.0474346990E-002,Pass,Pass,6.8758999365E-003,1.0395689905E-002,Pass,Pass
 Warmup Convergence Information,GROUNDFLOOR_PLENUM ZN,SizingPeriod: TAMPA-MACDILL.AFB_FL_USA ANN HTG 99.6% CONDNS DB HVAC Sizing Pass 1,3.5870527706E-002,5.8266404433E-002,Pass,Pass,0.1079263699,0.3196850099,Pass,Pass
 Warmup Convergence Information,MIDFLOOR_PLENUM ZN,SizingPeriod: TAMPA-MACDILL.AFB_FL_USA ANN HTG 99.6% CONDNS DB HVAC Sizing Pass 1,6.0316330581E-002,7.1586483135E-002,Pass,Pass,0.2456954405,0.4253625189,Pass,Pass
 Warmup Convergence Information,PERIMETER_BOT_ZN_1 ZN,SizingPeriod: TAMPA-MACDILL.AFB_FL_USA ANN HTG 99.6% CONDNS DB HVAC Sizing Pass 1,0.1994295718,0.4374220088,Pass,Pass,0.1079256976,0.2959953629,Pass,Pass
 Warmup Convergence Information,PERIMETER_BOT_ZN_2 ZN,SizingPeriod: TAMPA-MACDILL.AFB_FL_USA ANN HTG 99.6% CONDNS DB HVAC Sizing Pass 1,0.2300996287,0.5055562983,Pass,Pass,0.1061523486,0.2949170109,Pass,Pass
 Warmup Convergence Information,PERIMETER_BOT_ZN_3 ZN,SizingPeriod: TAMPA-MACDILL.AFB_FL_USA ANN HTG 99.6% CONDNS DB HVAC Sizing Pass 1,0.1932466442,0.4011264455,Pass,Pass,9.9090522778E-002,0.2875936841,Pass,Pass
 Warmup Convergence Information,PERIMETER_BOT_ZN_4 ZN,SizingPeriod: TAMPA-MACDILL.AFB_FL_USA ANN HTG 99.6% CONDNS DB HVAC Sizing Pass 1,0.1153062525,0.2643533009,Pass,Pass,0.1157560532,0.2881348949,Pass,Pass
 Warmup Convergence Information,PERIMETER_MID_ZN_1 ZN,SizingPeriod: TAMPA-MACDILL.AFB_FL_USA ANN HTG 99.6% CONDNS DB HVAC Sizing Pass 1,0.3354121146,0.5962088407,Pass,Pass,0.4065798078,0.7736453513,Pass,Pass
 Warmup Convergence Information,PERIMETER_MID_ZN_2 ZN,SizingPeriod: TAMPA-MACDILL.AFB_FL_USA ANN HTG 99.6% CONDNS DB HVAC Sizing Pass 1,0.3577611236,0.6281242030,Pass,Pass,0.3979880829,0.8376228669,Pass,Pass
 Warmup Convergence Information,PERIMETER_MID_ZN_3 ZN,SizingPeriod: TAMPA-MACDILL.AFB_FL_USA ANN HTG 99.6% CONDNS DB HVAC Sizing Pass 1,0.2948245133,0.4362546625,Pass,Pass,0.3926729545,0.7922405174,Pass,Pass
 Warmup Convergence Information,PERIMETER_MID_ZN_4 ZN,SizingPeriod: TAMPA-MACDILL.AFB_FL_USA ANN HTG 99.6% CONDNS DB HVAC Sizing Pass 1,0.3026951100,0.5726948119,Pass,Pass,0.3339854548,0.6077183850,Pass,Pass
 Warmup Convergence Information,PERIMETER_TOP_ZN_1 ZN,SizingPeriod: TAMPA-MACDILL.AFB_FL_USA ANN HTG 99.6% CONDNS DB HVAC Sizing Pass 1,0.3988658192,0.6764053170,Pass,Pass,0.4620587592,1.2987590533,Pass,Pass
 Warmup Convergence Information,PERIMETER_TOP_ZN_2 ZN,SizingPeriod: TAMPA-MACDILL.AFB_FL_USA ANN HTG 99.6% CONDNS DB HVAC Sizing Pass 1,0.4219214968,0.7215628755,Pass,Pass,1.1774704426,10.3400184264,Pass,Pass
 Warmup Convergence Information,PERIMETER_TOP_ZN_3 ZN,SizingPeriod: TAMPA-MACDILL.AFB_FL_USA ANN HTG 99.6% CONDNS DB HVAC Sizing Pass 1,0.3423304052,0.4885289671,Pass,Pass,0.3179751847,0.5496127290,Pass,Pass
 Warmup Convergence Information,PERIMETER_TOP_ZN_4 ZN,SizingPeriod: TAMPA-MACDILL.AFB_FL_USA ANN HTG 99.6% CONDNS DB HVAC Sizing Pass 1,0.3763012180,0.6718445116,Pass,Pass,0.4550120588,1.6073018805,Pass,Pass
 Warmup Convergence Information,TOPFLOOR_PLENUM ZN,SizingPeriod: TAMPA-MACDILL.AFB_FL_USA ANN HTG 99.6% CONDNS DB HVAC Sizing Pass 1,9.7502436254E-002,0.1388959184,Pass,Pass,0.2657115403,0.4838865290,Pass,Pass
! <Plant Coincident Sizing Algorithm>,Plant Loop Name,Sizing Pass {#},Measured Mass Flow{kg/s},Measured Demand {W},Demand Calculated Mass Flow{kg/s},Sizes Changed {Yes/No},Previous Volume Flow Rate {m3/s},New Volume Flow Rate {m3/s},Demand Check Applied {Yes/No},Sizing Factor {},Normalized Change {},Specific Heat{J/kg-K},Density {kg/m3}
Plant Coincident Sizing Algorithm,CONDENSER WATER LOOP,1,180.1914491,4386530.80,188.0868772,Yes,0.180210,0.188106,Yes,1.0000,4.381689E-002,4197.9300,999.8980
Environment:Design Day Data,33.90,7.90,DefaultMultipliers,Wetbulb,25.10,{C},101229,270,3.1,0.00,No,No
Environment:Design Day Misc,233,1106.3,0.2000,0.1216,1.0,-3.33,12.4,ASHRAETau
 Component Sizing Information, PlantLoop, CHILLED WATER LOOP, Maximum Loop Flow Rate [m3/s], 0.15262
 Component Sizing Information, PlantLoop, CHILLED WATER LOOP, Plant Loop Volume [m3], 18.31488
 Component Sizing Information, PlantLoop, CONDENSER WATER LOOP, Maximum Loop Flow Rate [m3/s], 0.18811
 Component Sizing Information, PlantLoop, CONDENSER WATER LOOP, Plant Loop Volume [m3], 22.57273
 Component Sizing Information, PlantLoop, HEAT PUMP LOOP, Maximum Loop Flow Rate [m3/s], 1.88552E-002
 Component Sizing Information, PlantLoop, HEAT PUMP LOOP, Plant Loop Volume [m3], 2.26263
 Component Sizing Information, PlantLoop, HOT WATER LOOP, Maximum Loop Flow Rate [m3/s], 3.85026E-002
 Component Sizing Information, PlantLoop, HOT WATER LOOP, Plant Loop Volume [m3], 4.62031
 Component Sizing Information, PlantLoop, MAIN SERVICE WATER LOOP, Maximum Loop Flow Rate [m3/s], 4.39108E-004
 Component Sizing Information, PlantLoop, MAIN SERVICE WATER LOOP, Plant Loop Volume [m3], 5.26929E-002
 Component Sizing Information, Pump:VariableSpeed, CHILLED WATER LOOP SECONDARY PUMP, Design Flow Rate [m3/s], 0.15262
 Component Sizing Information, Pump:VariableSpeed, CHILLED WATER LOOP SECONDARY PUMP, Design Power Consumption [W], 28484.21805
 Component Sizing Information, Chiller:Electric:EIR, 90.1-2004 WATERCOOLED  CENTRIFUGAL CHILLER 0 416TONS 0.6KW/TON, Design Size Reference Chilled Water Flow Rate [m3/s], 7.63120E-002
 Component Sizing Information, Chiller:Electric:EIR, 90.1-2004 WATERCOOLED  CENTRIFUGAL CHILLER 0 416TONS 0.6KW/TON, Design Size Reference Capacity [W], 1797349.30803
 Component Sizing Information, Chiller:Electric:EIR, 90.1-2004 WATERCOOLED  CENTRIFUGAL CHILLER 0 416TONS 0.6KW/TON, Design Size Reference Condenser Fluid Flow Rate [m3/s], 9.01049E-002
! <Chiller Standard Rating Information>, Component Type, Component Name, IPLV in SI Units {W/W}, IPLV in IP Units {Btu/W-h}
 Chiller Standard Rating Information, Chiller:Electric:EIR, 90.1-2004 WATERCOOLED  CENTRIFUGAL CHILLER 0 416TONS 0.6KW/TON, 6.86, 23.41
 Component Sizing Information, Chiller:Electric:EIR, 90.1-2004 WATERCOOLED  CENTRIFUGAL CHILLER 1 416TONS 0.6KW/TON, Design Size Reference Chilled Water Flow Rate [m3/s], 7.63120E-002
 Component Sizing Information, Chiller:Electric:EIR, 90.1-2004 WATERCOOLED  CENTRIFUGAL CHILLER 1 416TONS 0.6KW/TON, Design Size Reference Capacity [W], 1797349.30803
 Component Sizing Information, Chiller:Electric:EIR, 90.1-2004 WATERCOOLED  CENTRIFUGAL CHILLER 1 416TONS 0.6KW/TON, Design Size Reference Condenser Fluid Flow Rate [m3/s], 9.01049E-002
 Chiller Standard Rating Information, Chiller:Electric:EIR, 90.1-2004 WATERCOOLED  CENTRIFUGAL CHILLER 1 416TONS 0.6KW/TON, 6.86, 23.41
 Component Sizing Information, Pump:ConstantSpeed, CHILLED WATER LOOP PRIMARY PUMP, Design Flow Rate [m3/s], 0.15262
 Component Sizing Information, Pump:ConstantSpeed, CHILLED WATER LOOP PRIMARY PUMP, Design Power Consumption [W], 9802.39012
 Component Sizing Information, CoolingTower:VariableSpeed, CENTRIFUGAL VARIABLE SPEED FAN OPEN COOLING TOWER 20.0 GPM/HP, Design Water Flow Rate [m3/s], 0.18811
 Component Sizing Information, CoolingTower:VariableSpeed, CENTRIFUGAL VARIABLE SPEED FAN OPEN COOLING TOWER 20.0 GPM/HP, Design Air Flow Rate [m3/s], 241.30609
 Component Sizing Information, CoolingTower:VariableSpeed, CENTRIFUGAL VARIABLE SPEED FAN OPEN COOLING TOWER 20.0 GPM/HP, Nominal Capacity [W], 4342031.37534
 Component Sizing Information, CoolingTower:VariableSpeed, CENTRIFUGAL VARIABLE SPEED FAN OPEN COOLING TOWER 20.0 GPM/HP, Air Flow Rate in free convection regime [m3/s], 48.26122
 Component Sizing Information, CoolingTower:VariableSpeed, CENTRIFUGAL VARIABLE SPEED FAN OPEN COOLING TOWER 20.0 GPM/HP, Tower capacity in free convection regime at design conditions [W], 542753.92192
 Component Sizing Information, Pump:ConstantSpeed, CONDENSER WATER LOOP CONSTANT PUMP, Design Flow Rate [m3/s], 0.18811
 Component Sizing Information, Pump:ConstantSpeed, CONDENSER WATER LOOP CONSTANT PUMP, Design Power Consumption [W], 38522.74909
 Component Sizing Information, FluidCooler:TwoSpeed, HEAT PUMP LOOP FLUIDCOOLERTWOSPEED 4.0 GPM/HP, Design Water Flow Rate [m3/s], 1.88552E-002
 Component Sizing Information, FluidCooler:TwoSpeed, HEAT PUMP LOOP FLUIDCOOLERTWOSPEED 4.0 GPM/HP, Air Flow Rate at High Fan Speed [m3/s], 187218.40303
 Component Sizing Information, FluidCooler:TwoSpeed, HEAT PUMP LOOP FLUIDCOOLERTWOSPEED 4.0 GPM/HP, U-factor Times Area Value at High Fan Speed [W/K], 94775.69269
 Component Sizing Information, FluidCooler:TwoSpeed, HEAT PUMP LOOP FLUIDCOOLERTWOSPEED 4.0 GPM/HP, Air Flow Rate at Low Fan Speed [m3/s], 93609.20151
 Component Sizing Information, FluidCooler:TwoSpeed, HEAT PUMP LOOP FLUIDCOOLERTWOSPEED 4.0 GPM/HP, U-factor Times Area Value at Low Fan Speed [W/K], 56865.41562
 Component Sizing Information, Boiler:HotWater, HEAT PUMP LOOP SUPPLEMENTAL BOILER 1504KBTU/HR 0.75 THERMAL EFF, Design Size Nominal Capacity [W], 776673.65019
 Component Sizing Information, Boiler:HotWater, HEAT PUMP LOOP SUPPLEMENTAL BOILER 1504KBTU/HR 0.75 THERMAL EFF, Design Size Design Water Flow Rate [m3/s], 1.88552E-002
 Component Sizing Information, Pump:ConstantSpeed, HEAT PUMP LOOP PUMP, Design Flow Rate [m3/s], 1.88552E-002
 Component Sizing Information, Pump:ConstantSpeed, HEAT PUMP LOOP PUMP, Design Power Consumption [W], 4954.68401
 Component Sizing Information, Boiler:HotWater, BOILER 5939KBTU/HR 0.75 THERMAL EFF, Design Size Nominal Capacity [W], 1760293.79471
 Component Sizing Information, Boiler:HotWater, BOILER 5939KBTU/HR 0.75 THERMAL EFF, Design Size Design Water Flow Rate [m3/s], 3.85026E-002
 Component Sizing Information, Pump:VariableSpeed, HOT WATER LOOP PUMP, Design Flow Rate [m3/s], 3.85026E-002
 Component Sizing Information, Pump:VariableSpeed, HOT WATER LOOP PUMP, Design Power Consumption [W], 9728.39574
 Component Sizing Information, WaterHeater:Mixed, 300GAL NATURAL GAS WATER HEATER - 300KBTU/HR 0.804 THERM EFF, Use Side Design Flow Rate [m3/s], 4.39108E-004
 Component Sizing Information, Pump:ConstantSpeed, MAIN SERVICE WATER LOOP CIRCULATOR PUMP, Design Flow Rate [m3/s], 4.39108E-004
 Component Sizing Information, Pump:ConstantSpeed, MAIN SERVICE WATER LOOP CIRCULATOR PUMP, Design Power Consumption [W], 20.39685
Environment:Design Day Data,4.60,0.00,DefaultMultipliers,Wetbulb,4.60,{C},101229,10,2.5,0.00,No,No
Environment:Design Day Misc, 21,1229.0,0.1415,5.7310E-002,1.0,-11.15,-20.1,ASHRAEClearSky
Environment,RUN PERIOD 1,WeatherFileRunPeriod,01/01/2006,12/31/2006,Sunday,365,Use RunPeriod Specified Day,No,No,No,Yes,Yes,Clark and Allen
Environment:Design Day Data,33.90,7.90,DefaultMultipliers,Wetbulb,25.10,{C},101229,270,3.1,0.00,No,No
Environment:Design Day Misc,233,1106.3,0.2000,0.1216,1.0,-3.33,12.4,ASHRAETau
Environment:Design Day Data,4.60,0.00,DefaultMultipliers,Wetbulb,4.60,{C},101229,10,2.5,0.00,No,No
Environment:Design Day Misc, 21,1229.0,0.1415,5.7310E-002,1.0,-11.15,-20.1,ASHRAEClearSky
Environment,RUN PERIOD 1,WeatherFileRunPeriod,01/01/2006,12/31/2006,Sunday,365,Use RunPeriod Specified Day,No,No,No,Yes,Yes,Clark and Allen
Environment:Daylight Saving,Yes,InputFile,03/12,11/05
Environment:WarmupDays,  9
 Warmup Convergence Information,BASEMENT ZN,RunPeriod: RUN PERIOD 1,1.2469869983E-003,1.7446067366E-003,Pass,Pass,0.0000000000,0.0000000000,Pass,Pass
 Warmup Convergence Information,CORE_BOTTOM ZN,RunPeriod: RUN PERIOD 1,0.2501627645,0.2068991900,Pass,Pass,0.5685730418,0.5757211691,Pass,Pass
 Warmup Convergence Information,CORE_MID ZN,RunPeriod: RUN PERIOD 1,2.0614360553E-002,2.4788360739E-002,Pass,Pass,0.5192922877,0.4914456512,Pass,Pass
 Warmup Convergence Information,CORE_TOP ZN,RunPeriod: RUN PERIOD 1,0.1533158597,0.1592737513,Pass,Pass,0.5334825759,0.5039314046,Pass,Pass
 Warmup Convergence Information,DATACENTER_BASEMENT_ZN_6 ZN,RunPeriod: RUN PERIOD 1,2.7632217502E-015,3.4384843398E-015,Pass,Pass,7.3053142425E-005,4.8410468588E-005,Pass,Pass
 Warmup Convergence Information,DATACENTER_BOT_ZN_6 ZN,RunPeriod: RUN PERIOD 1,7.7217767656E-003,5.9818844113E-003,Pass,Pass,2.4971936512E-003,3.0288982962E-003,Pass,Pass
 Warmup Convergence Information,DATACENTER_MID_ZN_6 ZN,RunPeriod: RUN PERIOD 1,1.1246520497E-002,9.0334811077E-003,Pass,Pass,2.2588216795E-003,2.4513153665E-003,Pass,Pass
 Warmup Convergence Information,DATACENTER_TOP_ZN_6 ZN,RunPeriod: RUN PERIOD 1,1.4338436000E-002,1.1407412889E-002,Pass,Pass,4.6945066187E-003,5.0067249664E-003,Pass,Pass
 Warmup Convergence Information,GROUNDFLOOR_PLENUM ZN,RunPeriod: RUN PERIOD 1,7.1932609766E-002,5.6740433507E-002,Pass,Pass,0.5031458582,0.4821529533,Pass,Pass
 Warmup Convergence Information,MIDFLOOR_PLENUM ZN,RunPeriod: RUN PERIOD 1,0.1224339563,8.3426642078E-002,Pass,Pass,0.4962377070,0.4863443599,Pass,Pass
 Warmup Convergence Information,PERIMETER_BOT_ZN_1 ZN,RunPeriod: RUN PERIOD 1,0.4223258732,0.4797923632,Pass,Pass,0.7474666380,2.1064320841,Pass,Pass
 Warmup Convergence Information,PERIMETER_BOT_ZN_2 ZN,RunPeriod: RUN PERIOD 1,0.5687555489,0.5797423669,Pass,Pass,0.5359088578,0.5254584229,Pass,Pass
 Warmup Convergence Information,PERIMETER_BOT_ZN_3 ZN,RunPeriod: RUN PERIOD 1,0.6065373162,0.5582168716,Pass,Pass,0.5203541495,0.4578781834,Pass,Pass
 Warmup Convergence Information,PERIMETER_BOT_ZN_4 ZN,RunPeriod: RUN PERIOD 1,0.1833613686,0.2281246891,Pass,Pass,0.6738155138,1.4224022172,Pass,Pass
 Warmup Convergence Information,PERIMETER_MID_ZN_1 ZN,RunPeriod: RUN PERIOD 1,0.7079906201,0.7201972294,Pass,Pass,0.5955950936,0.7933422836,Pass,Pass
 Warmup Convergence Information,PERIMETER_MID_ZN_2 ZN,RunPeriod: RUN PERIOD 1,0.8840566296,0.7946715725,Pass,Pass,0.5181320398,0.4925182317,Pass,Pass
 Warmup Convergence Information,PERIMETER_MID_ZN_3 ZN,RunPeriod: RUN PERIOD 1,0.8633242402,0.6540487506,Pass,Pass,0.5151912630,0.5297318306,Pass,Pass
 Warmup Convergence Information,PERIMETER_MID_ZN_4 ZN,RunPeriod: RUN PERIOD 1,0.9533268648,0.8103845057,Pass,Pass,0.5128478561,0.4837222754,Pass,Pass
 Warmup Convergence Information,PERIMETER_TOP_ZN_1 ZN,RunPeriod: RUN PERIOD 1,0.8680950467,0.8399750533,Pass,Pass,0.5206432646,0.4945947906,Pass,Pass
 Warmup Convergence Information,PERIMETER_TOP_ZN_2 ZN,RunPeriod: RUN PERIOD 1,1.0385385676,0.9224418436,Pass,Pass,0.5236838838,0.4996368376,Pass,Pass
 Warmup Convergence Information,PERIMETER_TOP_ZN_3 ZN,RunPeriod: RUN PERIOD 1,0.9396865475,0.7264355806,Pass,Pass,0.5011129740,0.5118923820,Pass,Pass
 Warmup Convergence Information,PERIMETER_TOP_ZN_4 ZN,RunPeriod: RUN PERIOD 1,1.1035410402,0.9355841554,Pass,Pass,0.5215761487,0.4956827158,Pass,Pass
 Warmup Convergence Information,TOPFLOOR_PLENUM ZN,RunPeriod: RUN PERIOD 1,0.2444844378,0.1858479839,Pass,Pass,0.4929673386,0.4886092888,Pass,Pass
! <Program Control Information:Threads/Parallel Sims>, Threading Supported,Maximum Number of Threads, Env Set Threads (OMP_NUM_THREADS), EP Env Set Threads (EP_OMP_NUM_THREADS), IDF Set Threads, Number of Threads Used (Interior Radiant Exchange), Number Nominal Surfaces, Number Parallel Sims
Program Control:Threads/Parallel Sims, No,1, N/A, N/A, N/A, N/A, N/A, N/A
End of Data
